96
HPVISMWRRURKMP-GIRTXBHHSA-N
 C         -8.3259013573        0.3447944650       -2.3293128322
 C         -7.9364249591        1.8202284630       -2.3744891539
 C          2.5859721037       -4.8254735993       -5.8002630326
 C          4.0028634066       -4.6123769667       -5.2777218682
 C          2.4059709055        8.1139489444       -0.9876536301
 C          3.3829823057        7.4900354373       -1.9792769471
 C         -7.0932035342       -0.5464745999       -2.4486318285
 C         -6.9176779270        2.1477253677       -1.2868473783
 C          1.5909301293       -4.8494022507       -4.6458718339
 C          4.0821584465       -3.3234470836       -4.4679359767
 C          1.2341213611        7.1731344202       -0.7309139862
 C          3.8787353682        6.1430700482       -1.4650228139
 C         -2.3533086611       -2.2938549238       -1.5122869239
 C         -1.5363158739        3.0924623732        0.1628883572
 C          3.1884094754        0.4055539258       -1.2460310089
 C         -2.8881040567       -3.1268672462        0.6842227515
 C         -2.6018962124        1.3802735758        1.4776981718
 C         -0.8230337398       -3.7745256699       -0.3857848416
 C         -0.5340976942        2.3716891834        2.2329413622
 C          4.0804456818       -0.8044270134        0.6365611083
 C          3.8632763165        1.5983536946        0.7348035907
 C         -4.4800756413       -1.6164563740       -0.4286094593
 C         -3.6183749669        2.0405999748       -0.6685069253
 C         -0.2369662644       -2.9116880088       -2.6268190301
 C          0.5539673744        4.1689215488        0.9460120853
 C          3.4676333232       -2.0564209164       -1.3925203911
 C          2.9175968436        2.8612648308       -1.1661630710
 C         -3.2287716015       -2.3601709305       -0.4300952069
 C         -2.5789010075        2.1918396984        0.3419089565
 C         -1.1522953797       -2.9939465249       -1.4967010771
 C         -0.5224849036        3.2031505983        1.1130762482
 C          3.5708230804       -0.8006818381       -0.6615651302
 C          3.3315214433        1.6045093252       -0.5572044155
 C         -1.6935967790       -3.8247439880        0.6831908066
 C         -1.5724634974        1.4715268167        2.3916811957
 C          4.2204044379        0.3964236028        1.3093484286
 C         -6.0995474335       -0.2186574232       -1.3352393606
 C         -5.6784778130        1.2640779247       -1.4452818889
 C          1.6604027783       -3.5501321431       -3.8356532017
 C          3.0921281055       -3.3498420743       -3.2993525272
 C          1.7244614198        5.8245644916       -0.2056003097
 C          2.7076026370        5.1892570959       -1.2199129881
 Br        -1.2365835783       -4.8861727077        2.2106304397
 Br        -1.5746741602        0.3037832360        3.9098805258
 Br         4.9312494235        0.3886974559        3.0886161170
 N         -4.9128650761       -1.0118228871       -1.4492841555
 N         -4.7303860823        1.5090395896       -0.4019889044
 N          0.7784991940       -3.6551654648       -2.7143634397
 N          0.6158316201        4.9311472650       -0.0590395655
 N          3.1521180180       -2.0947328888       -2.6139382898
 N          3.1867714078        3.9753740768       -0.6377404572
 H         -8.8334681401        0.1328191691       -1.3854744642
 H         -9.0190714831        0.1192118844       -3.1416400391
 H         -8.8232579701        2.4421530601       -2.2402315818
 H         -7.5073164195        2.0523711168       -3.3519732947
 H          2.3256771126       -4.0176616405       -6.4879713838
 H          2.5282377153       -5.7674663808       -6.3485131079
 H          4.2891912947       -5.4562204977       -4.6460218314
 H          4.7052318519       -4.5614736609       -6.1116389413
 H          2.0329349567        9.0627473665       -1.3772612476
 H          2.9223269308        8.3157373782       -0.0464508933
 H          4.2346648779        8.1548219197       -2.1337153229
 H          2.8851115740        7.3503876221       -2.9415784167
 H         -6.6040349174       -0.3956118611       -3.4123427530
 H         -7.3761041862       -1.5985086262       -2.3751166544
 H         -7.3468034102        1.9785540843       -0.2978288706
 H         -6.6160097760        3.1956577999       -1.3495364763
 H          1.8064920301       -5.6846798549       -3.9772434338
 H          0.5729525968       -4.9734854476       -5.0217387275
 H          3.8488850360       -2.4638571954       -5.0986285043
 H          5.0894612274       -3.1850880599       -4.0696747079
 H          0.5496884811        7.6064347480        0.0011982065
 H          0.6759951292        7.0021387159       -1.6529658997
 H          4.4213829592        6.2718671019       -0.5270759337
 H          4.5581258543        5.6851671041       -2.1872523681
 H         -2.6341986346       -1.6892646724       -2.3602695084
 H         -1.4967075033        3.7343324141       -0.7029842361
 H          2.7898995323        0.3838517097       -2.2480619706
 H         -3.5494753713       -3.1785261111        1.5360173431
 H         -3.4171091271        0.6875981970        1.6073703395
 H          0.1069636455       -4.3192923278       -0.3876037618
 H          0.2581995620        2.4282909930        2.9642035127
 H          4.3699958480       -1.7317622243        1.1074341868
 H          3.9821623593        2.5349952653        1.2546505060
 H         -5.0245405190       -1.6050900490        0.5272282215
 H         -3.3583859114        2.3932619935       -1.6773168083
 H         -0.4891240072       -2.1647987967       -3.3936843971
 H          1.3052112425        4.1950993446        1.7479237253
 H          3.7035561406       -2.9653808826       -0.8199681184
 H          2.3540198648        2.7758438552       -2.1066007482
 H         -6.5785961469       -0.3567527534       -0.3494622479
 H         -5.2323682609        1.4328454341       -2.4412731701
 H          1.4029273491       -2.6912803548       -4.4804947055
 H          3.3257771138       -4.1932162537       -2.6256558688
 H          2.2714283932        5.9540086652        0.7442415938
 H          2.1608493801        5.0055394657       -2.1620828728