96
HPVISMWRRURKMP-GIRTXBHHSA-N
 C         -8.4998024090       -0.0154077409       -0.9435552781
 C         -8.5227942832       -0.5932596740        0.4681937757
 C          1.7311949538       -7.5359065671       -1.4034757496
 C          2.1219987139       -7.3812995126        0.0622238848
 C          1.3216524547        7.5212306002        0.4770148207
 C          1.8620418048        7.1333065377       -0.8950464146
 C         -7.2335089426       -0.4627422304       -1.6823281789
 C         -7.3786521188       -0.0061002149        1.3021697921
 C          0.7538276833       -6.4383659953       -1.8053218588
 C          2.7448547318       -6.0110809720        0.2992106168
 C          0.3526562438        6.4587198501        0.9808987608
 C          2.5568305348        5.7793861402       -0.8230833915
 C         -1.6365688957       -2.0855329952       -1.9154241489
 C         -1.8920769069        2.0938854763        1.6952175036
 C          1.8439329688       -0.0989082822        0.0240903850
 C         -2.2470040265        0.1654861166       -2.5091228826
 C         -2.4585550117       -0.0710315296        2.5822053805
 C         -0.0181738492       -0.6515529633       -2.9748389366
 C         -0.2874623590        0.8963371585        3.0320774767
 C          3.9361225239       -1.2464728198        0.3623670346
 C          3.8992697327        1.1555110837        0.1294805432
 C         -3.8982890811       -1.2902484330       -1.3626177588
 C         -4.0945235180        1.1418447828        1.1612262238
 C          0.6406067447       -2.9488958587       -2.3384618240
 C          0.3293284815        3.1007013473        2.0960657951
 C          1.8547524983       -2.5664672581        0.2395843569
 C          1.7852368228        2.3575179772       -0.2872191498
 C         -2.5848451695       -1.0699208478       -1.9507213589
 C         -2.8069624378        1.0568055429        1.8344486048
 C         -0.3548130593       -1.8880951497       -2.4264065010
 C         -0.6328971583        2.0233871268        2.2884554180
 C          2.5487237489       -1.2832036803        0.2207220313
 C          2.5141195718        1.1198870116       -0.0395430561
 C         -0.9725349594        0.3508212257       -3.0052850329
 C         -1.2086062271       -0.1285423264        3.1643586994
 C          4.5841376322       -0.0269920113        0.3268289156
 C         -6.0511698123       -0.6748566407       -0.7256181882
 C         -6.1541677030        0.3361435715        0.4424357975
 C          1.3506823165       -5.0490989032       -1.5846132516
 C          1.7926778428       -4.8841556878       -0.0971077467
 C          1.0204849680        5.0871676271        1.0675892773
 C          1.6094950448        4.6911608184       -0.3210926277
 Br        -0.4973350265        2.0562311643       -3.7362312076
 Br        -0.7193396687       -1.6840743859        4.1715113735
 Br         6.4833511040        0.0232590649        0.5468823944
 N         -4.8209485254       -0.4302624830       -1.4137462983
 N         -4.9614491686        0.2260866832        1.2258777706
 N          0.3503363881       -4.0618881446       -1.8137216482
 N          0.0404076003        4.1016669165        1.3799623487
 N          2.4810955369       -3.6372181979       -0.0004506118
 N          2.3441104172        3.4812964513       -0.1400584499
 H         -9.3790015582       -0.3434538855       -1.4997595438
 H         -8.5361809687        1.0735109598       -0.8810278156
 H         -8.4289226415       -1.6789181847        0.4084929365
 H         -9.4752749207       -0.3707567578        0.9510918598
 H          2.6253655029       -7.4750427777       -2.0279646854
 H          1.2698332766       -8.5109963883       -1.5689760808
 H          1.2350710851       -7.4923368589        0.6900263304
 H          2.8347112762       -8.1578468624        0.3447098899
 H          0.8084425569        8.4827274824        0.4206627981
 H          2.1511781983        7.6219655473        1.1805951179
 H          2.5690689300        7.8863736623       -1.2469491284
 H          1.0387853167        7.0818127417       -1.6109941143
 H         -6.9415699689        0.2854046050       -2.4209042751
 H         -7.4144264697       -1.3999569729       -2.2116968597
 H         -7.0657565110       -0.7159918986        2.0692338305
 H         -7.7063454959        0.9049853153        1.8058899956
 H         -0.1605048667       -6.5137546834       -1.2144314904
 H          0.4831457555       -6.5346333973       -2.8589237172
 H          3.6587067737       -5.9057847779       -0.2879687020
 H          3.0051742744       -5.8874604339        1.3521687546
 H         -0.0235609314        6.7237164207        1.9712322355
 H         -0.5011972054        6.3784204195        0.3061615474
 H          3.4105050521        5.8284426805       -0.1449780771
 H          2.9246812251        5.4866191792       -1.8083127905
 H         -1.8696171772       -3.0481637291       -1.4881028458
 H         -2.1332335586        2.9742018392        1.1203355646
 H          0.7695943402       -0.1271810631       -0.0941151180
 H         -2.9863317423        0.9494375140       -2.5332723996
 H         -3.1716526165       -0.8729079231        2.6847367116
 H          0.9745754480       -0.4771687185       -3.3620208539
 H          0.6866282689        0.8219380336        3.4918532787
 H          4.4712751607       -2.1719647747        0.5004888053
 H          4.4030106286        2.1078127591        0.0917599186
 H         -4.0259719492       -2.2534798856       -0.8481050862
 H         -4.2527610082        2.0531224408        0.5672156609
 H          1.6394715671       -2.7196532628       -2.7364909317
 H          1.3026588413        2.9845000072        2.5937895542
 H          0.7780136330       -2.5359139721        0.4564641023
 H          0.7435853338        2.2476753315       -0.6199196673
 H         -6.0686464493       -1.6882908311       -0.2907414002
 H         -6.2458089618        1.3414764733       -0.0014888282
 H          2.2448153504       -4.8977126333       -2.2137094713
 H          0.8773255257       -4.9033607903        0.5168823053
 H          1.8543743179        5.0964089446        1.7902657883
 H          0.7583056545        4.5608191000       -1.0091435308