96
HPVISMWRRURKMP-GIRTXBHHSA-N
 C         -8.3345514527       -1.5108071558       -0.9776190560
 C         -8.6451443303       -0.1311513496       -0.4065442007
 C          2.7965308460       -7.4327953703        0.4985224101
 C          3.8303285283       -6.7085015708        1.3554666478
 C          3.4208741745        6.1679527601        3.5690608512
 C          3.9736784176        6.3070474727        2.1545449403
 C         -6.9333016889       -1.5345918182       -1.5768006026
 C         -7.6098789643        0.2516650334        0.6446250061
 C          1.5979285282       -6.5292484554        0.2294376556
 C          4.2717724312       -5.4134436311        0.6826675324
 C          2.0837021931        5.4379724958        3.5434934893
 C          4.1089872375        4.9382182482        1.4984390400
 C         -1.3387446940       -2.6325626431       -1.1659651103
 C         -2.0157279948        2.0702418949        1.5431892658
 C          3.0742063215        0.2634181854       -0.1657625296
 C         -2.0575417774       -0.6098327250       -2.2608403398
 C         -3.4333673629        1.0321700066        3.1927706470
 C          0.1581467162       -1.4765879680       -2.6599676601
 C         -1.2929043288        1.9453849783        3.8366429322
 C          3.8592791675       -1.0904678751       -1.9957114588
 C          3.7006940095        1.3074914092       -2.2449977091
 C         -3.6358740646       -1.7908180238       -0.7777010693
 C         -4.2152403062        1.1766567838        0.8542499844
 C          0.9370521691       -3.5437561640       -1.5990367345
 C          0.1881193462        3.0154528326        2.1707562856
 C          3.1058431211       -2.1906811812        0.0886199041
 C          2.9657913974        2.7287244246       -0.3656547794
 C         -2.3249542346       -1.6817314058       -1.4058474855
 C         -3.2066440723        1.4277664631        1.8737251240
 C         -0.1037018077       -2.5468301948       -1.8053285722
 C         -1.0561650473        2.3323217279        2.5164912982
 C          3.3662205793       -0.9898705244       -0.6923367011
 C          3.2455557491        1.4140435417       -0.9318536823
 C         -0.8164469699       -0.5159158726       -2.8543829111
 C         -2.4730165187        1.3000731024        4.1480802436
 C          4.0133581016        0.0566214606       -2.7476117270
 C         -5.8807316963       -1.1631197684       -0.5282824278
 C         -6.1989321976        0.2340233941        0.0584027407
 C          2.0356450063       -5.2386163676       -0.4571640046
 C          3.0747760613       -4.4966498318        0.4306211170
 C          2.2233858298        4.0579078090        2.8822046067
 C          2.7555776647        4.2097476219        1.4454191572
 Br        -0.4257129020        0.9871866660       -3.9727112633
 Br        -2.7886961349        0.7632588356        5.9577592884
 Br         4.6592439300       -0.0869966709       -4.5473136931
 N         -4.6024580535       -1.0751388518       -1.1598462097
 N         -5.2510433065        0.4975186015        1.0988128602
 N          0.9116569226       -4.3684518594       -0.6416456677
 N          0.9888750554        3.3660504303        3.0777589200
 N          3.4832825657       -3.3350597825       -0.2911197284
 N          2.9615347043        2.9043510000        0.8838656221
 H         -8.4033114209       -2.2576067940       -0.1834680234
 H         -9.0621235261       -1.7701063878       -1.7487615961
 H         -9.6396130493       -0.1271340305        0.0428564900
 H         -8.6359858033        0.6066481835       -1.2121219716
 H          3.2512776382       -7.7238337191       -0.4511613135
 H          2.4630699709       -8.3406231724        1.0041261126
 H          3.3975951685       -6.4799898835        2.3321484392
 H          4.6994349995       -7.3493540880        1.5137865711
 H          3.2897537827        7.1543577832        4.0174210291
 H          4.1287075079        5.6080613130        4.1834057422
 H          4.9507919527        6.7930013078        2.1794776916
 H          3.3025940080        6.9314992054        1.5596818239
 H         -6.8629300145       -0.8234074487       -2.4017269879
 H         -6.7011009476       -2.5278579773       -1.9674210929
 H         -7.6426249195       -0.4488429060        1.4807017537
 H         -7.8134594520        1.2506480342        1.0352654401
 H          1.0986723331       -6.2719811886        1.1650655046
 H          0.8734924369       -7.0375826388       -0.4097675258
 H          4.7522300041       -5.6269127989       -0.2735656098
 H          4.9913268715       -4.8838791168        1.3107594595
 H          1.6997935118        5.3001281096        4.5547204425
 H          1.3493938791        6.0208373474        2.9812932992
 H          4.8118677598        4.3193701328        2.0601786316
 H          4.4922590023        5.0401486956        0.4798819927
 H         -1.5169880869       -3.4632883973       -0.5014486296
 H         -1.8379326512        2.3732856650        0.5210473546
 H          2.7086305758        0.3677296389        0.8438847443
 H         -2.8299478241        0.1207619336       -2.4379373181
 H         -4.3571571821        0.5324280831        3.4353524056
 H          1.1163484532       -1.3949734236       -3.1497665998
 H         -0.5457990833        2.1614173843        4.5829814701
 H          4.1022537015       -2.0640222642       -2.3900271314
 H          3.8189129772        2.1884001076       -2.8575334350
 H         -3.7276836599       -2.5322269581        0.0283342617
 H         -4.0190481501        1.6153160848       -0.1345060958
 H          1.7599036754       -3.5210087449       -2.3270388504
 H          0.3488720324        3.1796562652        1.0983974776
 H          2.5361445179       -2.0386687585        1.0171746821
 H          2.7849795542        3.5391757902       -1.0876675226
 H         -5.8863327915       -1.8983889607        0.2956642846
 H         -6.1101189802        0.9606996158       -0.7672663167
 H          2.5344217352       -5.4585032870       -1.4155274394
 H          2.5820789266       -4.2352773890        1.3843392552
 H          2.9619679460        3.4750348193        3.4483086635
 H          2.0616773099        4.8143584824        0.8354129891