96
HPVISMWRRURKMP-GIRTXBHHSA-N
 C         -8.4288445560       -0.4548622508       -1.1657928456
 C         -8.5643700446        0.7344388957       -0.2199310397
 C          2.2548716701       -7.1101221626        0.8815343456
 C          3.2059572655       -6.4162670471        1.8515097169
 C          2.2526573553        6.9406127185        2.8444114886
 C          2.9401772351        6.9635848105        1.4827467834
 C         -7.0412089074       -0.4801699987       -1.7970502677
 C         -7.4847835461        0.6874608399        0.8557483508
 C          1.1387352378       -6.1607819056        0.4603972358
 C          3.7851881291       -5.1553606635        1.2201534986
 C          1.0523795526        6.0006858258        2.8222505981
 C          3.3562863141        5.5563463738        1.0695051979
 C         -1.4774276262       -2.1944413221       -1.2167157399
 C         -1.9025367145        1.9653217055        2.1803849323
 C          2.8234063220        0.5254097656       -0.0800961809
 C         -2.0517259769       -0.1636650918       -2.3799163464
 C         -3.0128439873        0.0288805166        3.0886721666
 C          0.1588010770       -1.1078972262       -2.6111988099
 C         -0.8595766364        0.7049213914        3.9479662203
 C          3.9430687949       -0.9487371019       -1.6204442274
 C          3.8076395562        1.4173575382       -2.0892520974
 C         -3.7616757570       -1.2861879125       -0.9887895096
 C         -4.0780622453        1.2774414845        1.2395867395
 C          0.7925796239       -3.1788410707       -1.4527014193
 C          0.3003436144        2.6890507921        3.0682216804
 C          2.8114195135       -1.9048075168        0.3586110404
 C          2.6835140189        2.9582583060       -0.5219180019
 C         -2.4136096539       -1.2163046221       -1.5355513567
 C         -2.9880279845        1.0966398042        2.1874985624
 C         -0.1954224132       -2.1541090680       -1.7604281541
 C         -0.8374145779        1.7799784510        3.0597896134
 C          3.2155815211       -0.7588123623       -0.4430634944
 C          3.1160377900        1.6149403924       -0.8955320335
 C         -0.7707569229       -0.1227213302       -2.8895550056
 C         -1.9487780605       -0.1481220488        3.9476953054
 C          4.2258410081        0.1402513349       -2.4195295784
 C         -5.9570515627       -0.5420890077       -0.7208424005
 C         -6.0918541420        0.6769540026        0.2262161973
 C          1.7079745936       -4.8991534673       -0.1833418928
 C          2.6748746206       -4.1891285812        0.8091102265
 C          1.4819500533        4.5866286255        2.4202642638
 C          2.1397097373        4.6220328267        1.0289233555
 Br        -0.2589869387        1.3359892744       -4.0147064061
 Br        -1.9703993532       -1.6221595889        5.1708377468
 Br         5.1988282053       -0.1264350881       -4.0488783007
 N         -4.6642813108       -0.4712531292       -1.3282773504
 N         -5.0956455087        0.5301704295        1.2411777384
 N          0.6486276013       -3.9863455217       -0.4908853294
 N          0.3315721785        3.7370912818        2.3661769163
 N          3.2256102085       -3.0730025073        0.1123493282
 N          2.5533974088        3.2883714298        0.6883217057
 H         -8.5915553942       -1.3814574053       -0.6106098139
 H         -9.1843776815       -0.3956256232       -1.9511764966
 H         -9.5484481410        0.7260677150        0.2519444564
 H         -8.4705318188        1.6629949799       -0.7876394942
 H          2.8090764279       -7.4338391024       -0.0024931971
 H          1.8226438181       -7.9953768892        1.3510334240
 H          2.6658064009       -6.1505184956        2.7630799174
 H          4.0187667363       -7.0909473862        2.1257962806
 H          1.9232667217        7.9459335590        3.1127031748
 H          2.9622371564        6.6046561350        3.6040782486
 H          3.8219040940        7.6060225437        1.5203356724
 H          2.2556376604        7.3726941543        0.7363580232
 H         -6.8812219318        0.4163173984       -2.3983085712
 H         -6.9353874726       -1.3479820951       -2.4514594534
 H         -7.5957006156       -0.2106507389        1.4655908498
 H         -7.5650095139        1.5543789526        1.5149325476
 H          0.5433434815       -5.8676185539        1.3266580090
 H          0.4739704059       -6.6478886954       -0.2556465208
 H          4.3679951232       -5.4087992150        0.3330548293
 H          4.4470243885       -4.6462424917        1.9239845980
 H          0.5814496532        5.9610819680        3.8067138768
 H          0.3070994041        6.3526721340        2.1069807410
 H          4.0825115010        5.1530999847        1.7786467191
 H          3.8227014515        5.5706810645        0.0817588778
 H         -1.7288804206       -3.0102529377       -0.5572779224
 H         -1.8612742798        2.7989118908        1.4971584593
 H          2.2711130579        0.6973400849        0.8304216606
 H         -2.7837817351        0.5913716162       -2.6165257356
 H         -3.8627280166       -0.6341390423        3.0890192622
 H          1.1509573132       -1.0632768193       -3.0340302008
 H         -0.0394426180        0.5440631773        4.6316532226
 H          4.2576201249       -1.9452511224       -1.8858104196
 H          4.0224917481        2.2502310992       -2.7411934777
 H         -3.9414598553       -2.0955315041       -0.2671564084
 H         -3.9486474331        2.0930499892        0.5140353682
 H          1.6763401963       -3.1962940033       -2.1059141825
 H          1.1301850523        2.4082611359        3.7341262630
 H          2.0990747026       -1.6920434111        1.1696601855
 H          2.4927805435        3.6493270106       -1.3552674025
 H         -6.0719091177       -1.4554736846       -0.1110040914
 H         -5.9332648945        1.5900820403       -0.3742434668
 H          2.2987869449       -5.1507743875       -1.0797446307
 H          2.0845722288       -3.8774289010        1.6891750188
 H          2.2301511285        4.2026742290        3.1373235699
 H          1.4142785356        5.0100994333        0.2968039268