96
HPVISMWRRURKMP-GIRTXBHHSA-N
 C         -8.5925587140       -0.4409260471       -0.7060280902
 C         -8.5656347062        0.5902677174        0.4189708976
 C          1.6500576173       -7.4510157235       -0.2293587486
 C          2.1339990019       -6.9872313183        1.1403054117
 C          1.4484216984        7.5683561192        1.6929746772
 C          1.8487499083        7.4853128667        0.2242150001
 C         -7.3220120130       -0.3597509735       -1.5465652582
 C         -7.3240619855        0.4118512581        1.2872045384
 C          0.6545242464       -6.4498865813       -0.8029026027
 C          2.7773736156       -5.6104802421        1.0321330468
 C          0.5046569238        6.4254375586        2.0452386477
 C          2.5197256187        6.1476645311       -0.0616683835
 C         -1.7398557216       -2.2019646198       -1.7501106458
 C         -1.7635781607        2.0134972403        1.9029513184
 C          1.8420210970        0.2068008553        0.0449937268
 C         -2.3426299467       -0.0721481733       -2.6965904533
 C         -2.3581960087       -0.2522685596        2.4543136811
 C         -0.1236586390       -0.9712255637       -3.0415614725
 C         -0.1738346423        0.6080625316        3.0399392169
 C          3.9386765971       -0.9697609102       -0.1214349989
 C          3.8797649774        1.4333855670       -0.3417475495
 C         -3.9889469650       -1.3129147085       -1.3124293699
 C         -3.9670293197        1.1705856908        1.2086813371
 C          0.5320077900       -3.1338534057       -2.0397637128
 C          0.4664777763        2.9252001578        2.4506157955
 C          1.8821572533       -2.2478723578        0.3586272944
 C          1.7546147836        2.6739649251       -0.1400692414
 C         -2.6826458910       -1.1991283947       -1.9439724466
 C         -2.6904033358        0.9778628422        1.8814741731
 C         -0.4606836660       -2.0976179866       -2.2932347105
 C         -0.5072588237        1.8409584308        2.4814272226
 C          2.5584837817       -0.9863315735        0.0869396301
 C          2.4969431020        1.4175478387       -0.1607969746
 C         -1.0724512196        0.0191665068       -3.2283640240
 C         -1.1080470491       -0.4134145867        3.0167697079
 C          4.5728207571        0.2380628074       -0.3334790263
 C         -6.0905899299       -0.5645752545       -0.6656487035
 C         -6.0613116486        0.5256957259        0.4331834615
 C          1.2682237144       -5.0560099349       -0.9255770604
 C          1.8015094162       -4.5830609530        0.4615736376
 C          1.1431700198        5.0641695548        1.7705418230
 C          1.6046958407        4.9741835461        0.2833654569
 Br        -0.5907999712        1.5792187442       -4.2321467606
 Br        -0.6337774524       -2.1145196403        3.7579439181
 Br         6.4639927256        0.2585139312       -0.6173247471
 N         -4.8865297883       -0.4325263467       -1.4283760174
 N         -4.8874205452        0.3069005391        1.2219452009
 N          0.2588739120       -4.1226791186       -1.3007709171
 N          0.1655750468        4.0429664403        1.9432134949
 N          2.4895276279       -3.3509119974        0.2515011705
 N          2.3388464981        3.7565485554        0.1462790849
 H         -8.6786987559       -1.4423855721       -0.2782567336
 H         -9.4619612323       -0.2718865390       -1.3436682538
 H         -9.4593316867        0.4895802263        1.0372920835
 H         -8.5645190992        1.5950621360       -0.0097033728
 H          2.5035546067       -7.5451874180       -0.9046571517
 H          1.1744167675       -8.4299382064       -0.1483983886
 H          1.2883439767       -6.9398214974        1.8300350825
 H          2.8588684085       -7.6968133044        1.5428189659
 H          0.9556284260        8.5207782739        1.8956219591
 H          2.3420006247        7.5105577733        2.3185466694
 H          2.5345495908        8.2966583586       -0.0248621584
 H          0.9603380312        7.5893978871       -0.4026380044
 H         -7.2474247256        0.6144912072       -2.0323385256
 H         -7.3309446331       -1.1251334605       -2.3253474966
 H         -7.3339925930       -0.5660711603        1.7711327989
 H         -7.2928903126        1.1747865159        2.0679487112
 H         -0.2219123260       -6.3792087865       -0.1566004252
 H          0.3195676996       -6.7690200701       -1.7921097618
 H          3.6511520847       -5.6517605912        0.3795810151
 H          3.1052493041       -5.2639624567        2.0141484581
 H          0.2281513021        6.4699730472        3.1008024921
 H         -0.4100020835        6.4970821146        1.4543830322
 H          3.4332044818        6.0509092547        0.5274931068
 H          2.7903603758        6.0741730431       -1.1166664237
 H         -1.9743635871       -3.0804199369       -1.1697206908
 H         -1.9939429641        2.9732783481        1.4679111279
 H          0.7713728572        0.1952883964        0.1946707598
 H         -3.0772329020        0.7035542565       -2.8399158168
 H         -3.0805847315       -1.0520236726        2.4347463265
 H          0.8655343831       -0.8703002646       -3.4623340296
 H          0.8007798846        0.4514456282        3.4774467821
 H          4.4786579199       -1.9025942114       -0.1010181442
 H          4.3773050520        2.3784182467       -0.4874996122
 H         -4.1316213001       -2.2107053528       -0.6940551663
 H         -4.0651345625        2.1172358851        0.6574535727
 H          1.5159516033       -2.9954811313       -2.5101559434
 H          1.4575502472        2.7094830070        2.8748143744
 H          0.8326681773       -2.1744825559        0.6771442502
 H          0.6809311148        2.6105925107       -0.3655581741
 H         -6.1422194645       -1.5468957887       -0.1634373335
 H         -6.0321354006        1.5111520571       -0.0650620040
 H          2.1216430995       -5.0577091887       -1.6250650108
 H          0.9265264189       -4.4621561859        1.1212730418
 H          2.0331868268        4.9090857452        2.4047900591
 H          0.6949178302        4.9841188182       -0.3390477247