96
HPVISMWRRURKMP-GIRTXBHHSA-N
 C         -8.8917243983       -0.0784975605       -0.1158622618
 C         -8.6290575157        1.2082394531        0.6620623633
 C          2.8485016349       -6.9586897261       -2.1793751968
 C          3.2652207740       -6.9438680347       -0.7123174176
 C          1.7904253103        7.8741189766        0.6649754865
 C          2.7451963584        7.5181068386       -0.4698692554
 C         -7.7646781651       -0.3509372697       -1.1073242303
 C         -7.2815171780        1.1461620971        1.3746371366
 C          1.7016576894       -5.9834378793       -2.4137558747
 C          3.6563945577       -5.5331433761       -0.2893709960
 C          0.7305398667        6.7904601651        0.8254106152
 C          3.3998766916        6.1668310200       -0.2083730196
 C         -2.2840159990       -2.5584795001       -1.4767888736
 C         -1.7099249487        2.4536583023        1.3030005605
 C          2.7523594229        0.2876747984       -0.3588258181
 C         -3.0115173628       -0.7578375001       -2.9041239502
 C         -2.2514640189        0.1759076155        1.8655637173
 C         -0.8623002954       -1.7985092624       -3.2649186137
 C         -0.0554654419        1.0515642505        2.3545426320
 C          4.0349252796       -0.9886954718        1.2319286927
 C          3.9852670804        1.4217952446        1.3724771021
 C         -4.4488540934       -1.4682861884       -1.0220257059
 C         -3.9627795369        1.5777627187        0.7711693134
 C         -0.0823153349       -3.6366437790       -1.8064869653
 C          0.5293618097        3.3839679650        1.8325641269
 C          2.7805932882       -2.1754435590       -0.5433546335
 C          2.6058141682        2.7488098678       -0.1907915318
 C         -3.2421396190       -1.6089329182       -1.8222501786
 C         -2.6285673493        1.4104588857        1.3334067566
 C         -1.0917790166       -2.6583203660       -2.1885554981
 C         -0.4315907915        2.2886884330        1.8324818099
 C          3.1997438623       -0.9420024383        0.1154030959
 C          3.1300381563        1.4712118110        0.2699834422
 C         -1.8261091719       -0.8696278814       -3.6032412316
 C         -0.9672312649        0.0119798039        2.3420491106
 C          4.4193690949        0.1943116868        1.8331865589
 C         -6.4267748838       -0.4328516693       -0.3760605391
 C         -6.1598603156        0.9005086090        0.3639926727
 C          2.0976990082       -4.5546815750       -2.0126662451
 C          2.5059160949       -4.5427327730       -0.5183681673
 C          1.3687411270        5.4296484783        1.0948569632
 C          2.3513228820        5.0654067936       -0.0570770308
 Br        -1.4999106873        0.3118195881       -5.0755941582
 Br        -0.4262847502       -1.7071493448        2.9832509125
 Br         5.5778039286        0.1315437790        3.3571069429
 N         -5.3458506470       -0.6223404237       -1.2940382516
 N         -4.8969785987        0.7677101024        1.0224735329
 N          1.0621468165       -3.6156542561       -2.3470878082
 N          0.3534922061        4.4225448724        1.1338494927
 N          2.9067963287       -3.2885128682        0.0331335463
 N          2.9837986014        3.8431089482        0.3161861550
 H         -8.9681296583       -0.9152348651        0.5823701134
 H         -9.8387997360       -0.0010543204       -0.6526317549
 H         -9.4208381713        1.3667635731        1.3963701498
 H         -8.6340114045        2.0559695538       -0.0268717559
 H          3.6987290306       -6.6758096598       -2.8039801672
 H          2.5358602591       -7.9629988754       -2.4715751817
 H          2.4360523756       -7.2934771274       -0.0929324661
 H          4.1089000411       -7.6183098827       -0.5565159927
 H          1.3056952748        8.8302676118        0.4603865785
 H          2.3528843455        7.9734810027        1.5961193039
 H          3.5176080689        8.2833152334       -0.5638809744
 H          2.1931431325        7.4783912948       -1.4116862804
 H         -7.7092927795        0.4457415028       -1.8508849396
 H         -7.9394388231       -1.2916100276       -1.6335032867
 H         -7.2750737744        0.3393246835        2.1093830129
 H         -7.0847498934        2.0832316794        1.9000715849
 H          0.8307055501       -6.2900737080       -1.8297169477
 H          1.4145423655       -5.9797534421       -3.4680377957
 H          4.5225181239       -5.1984930810       -0.8648813225
 H          3.9238938920       -5.5082551403        0.7674370676
 H          0.0616242124        7.0308279937        1.6541234164
 H          0.1283910897        6.7132530091       -0.0814459966
 H          3.9929342105        6.2044015925        0.7068616217
 H          4.0668113586        5.9004981651       -1.0310228287
 H         -2.4619187222       -3.2173030940       -0.6389644941
 H         -1.9718614448        3.4140482508        0.8877125106
 H          2.0944365085        0.3229255306       -1.2154047552
 H         -3.7620162845       -0.0290459416       -3.1638128085
 H         -2.9704097561       -0.6265919946        1.8807454666
 H          0.0640677521       -1.8809457561       -3.8104443963
 H          0.9402258877        0.9059282634        2.7455207330
 H          4.3624278244       -1.9473290079        1.6001737964
 H          4.2842222738        2.3447232456        1.8428287117
 H         -4.5140085376       -2.1238038107       -0.1412752584
 H         -4.0939313201        2.4401458093        0.1019712781
 H         -0.3829147324       -4.3440159194       -1.0242331303
 H          1.4118198045        3.2455189479        2.4727480974
 H          2.3282714460       -2.0536593936       -1.5359250683
 H          1.8530365433        2.6997682550       -0.9915558202
 H         -6.4550610040       -1.2342035248        0.3835221587
 H         -6.1439015171        1.7159253240       -0.3806130811
 H          2.9720183158       -4.2483685358       -2.6048486338
 H          1.6492843305       -4.8664931350        0.0892311744
 H          1.9596353404        5.4504604723        2.0254640681
 H          1.7577360467        4.9603380758       -0.9824817441