96
HPVISMWRRURKMP-GIRTXBHHSA-N
 C         -7.3427052786        1.3095260072        1.7458212334
 C         -7.4347396592        2.1279845475        0.4634972391
 C          3.7100767697       -3.5938461691       -4.4008747825
 C          4.8197671692       -3.8570409748       -3.3884039796
 C          2.9426237542        8.1226388937        1.0435281781
 C          4.2555192443        7.5983958856        1.6174285869
 C         -6.5209242843        0.0510621349        1.5000011699
 C         -6.0384659997        2.5080237638       -0.0106674387
 C          2.3518668815       -3.6622209870       -3.7139654900
 C          4.7544493567       -2.8391226145       -2.2562014491
 C          2.3558702259        7.1265800636        0.0491421369
 C          4.0469654958        6.2381232808        2.2744284329
 C         -1.3912470668       -2.3398655729       -0.3657054539
 C         -1.2328415021        2.7026824008       -0.7723683707
 C          3.2092863273        0.4884168068        0.9959697513
 C         -3.4262148346       -3.4509702358        0.2904414679
 C         -0.9655846795        1.2332551919       -2.6609092350
 C         -1.6161376554       -4.7200040073       -0.6771278812
 C          0.8329402740        2.7124735051       -2.0046049941
 C          2.3650323539       -0.9284708707        2.7488741091
 C          2.5948426138        1.4525825459        3.1143541797
 C         -3.2404612346       -1.0173438545        0.6331942470
 C         -3.1205261090        1.2552793079       -1.4369903309
 C          0.4312109683       -3.6187338809       -1.4747599321
 C          0.5693548448        4.2102675969       -0.0415286435
 C          2.9511084426       -1.9246703081        0.5570934681
 C          3.4260552295        2.9160791079        1.2859550830
 C         -2.6659603798       -2.2844765371        0.1842665970
 C         -1.7549589249        1.7315122329       -1.6257917183
 C         -0.8703595978       -3.5504480423       -0.8201324925
 C          0.0521248002        3.1997502761       -0.9538881834
 C          2.8467594706       -0.7779937855        1.4499771358
 C          3.0817890976        1.6044411117        1.8134615772
 C         -2.8833486240       -4.6482412207       -0.1285132922
 C          0.3140096202        1.7339552436       -2.8278681959
 C          2.2520985161        0.1909488618        3.5559213531
 C         -5.1123052083        0.3719252267        0.9982886401
 C         -5.1647468552        1.2766164558       -0.2645757158
 C          2.2648082652       -2.6235411507       -2.5909892943
 C          3.3933580533       -2.8582669945       -1.5555928118
 C          2.1280887045        5.7686189823        0.7164137787
 C          3.4722569398        5.2379774745        1.2736589336
 Br        -3.9103637117       -6.2544765524        0.0487581810
 Br         1.3904905636        1.0583849154       -4.2514092693
 Br         1.5874009399       -0.0230738681        5.3411240076
 N         -4.4923622345       -0.8624933046        0.6236441212
 N         -3.8340208953        1.7271102872       -0.5080517425
 N          0.9892967896       -2.5788854668       -1.9230532448
 N          1.6525680411        4.8246924970       -0.2475909839
 N          3.3442096336       -1.7737688891       -0.6312746711
 N          3.2065598100        3.9867344307        1.9187885293
 H         -6.8721033316        1.9086525158        2.5285433682
 H         -8.3407196246        1.0304922412        2.0878220034
 H         -8.0178913751        3.0345545287        0.6344259674
 H         -7.9382567970        1.5423580653       -0.3088780441
 H          3.8428411936       -2.6046711517       -4.8430842632
 H          3.7508418945       -4.3329401644       -5.2031438504
 H          4.7126083430       -4.8660204996       -2.9818047934
 H          5.7943247177       -3.7937464949       -3.8750702187
 H          3.1086613524        9.0788260587        0.5440666397
 H          2.2304216913        8.2858584618        1.8556593200
 H          4.6484391386        8.3024702929        2.3529729125
 H          4.9907655792        7.5040724793        0.8150287984
 H         -7.0091187565       -0.5733975263        0.7496652071
 H         -6.4338986727       -0.5338923319        2.4176888620
 H         -5.5422306114        3.1222489649        0.7427554423
 H         -6.0918338388        3.0875430485       -0.9348941258
 H          2.2046550467       -4.6648230253       -3.3067303937
 H          1.5503582036       -3.4639072871       -4.4289270068
 H          4.9143020573       -1.8336987376       -2.6479880818
 H          5.5309742870       -3.0413502554       -1.5151856792
 H          1.4021818745        7.4915727223       -0.3384615608
 H          3.0328327723        6.9894378907       -0.7956422544
 H          3.3561852051        6.3240515443        3.1148673383
 H          4.9935134820        5.8497363558        2.6555664629
 H         -0.7929704819       -1.4480609057       -0.4712712245
 H         -1.8606504148        3.0680472347        0.0251035931
 H          3.5817117170        0.5760811937       -0.0121312446
 H         -4.4195892676       -3.3925622708        0.7049052897
 H         -1.3463153649        0.4684773521       -3.3210957365
 H         -1.2171898668       -5.6670314429       -1.0081415898
 H          1.8251442723        3.1083784875       -2.1479703900
 H          2.0811615468       -1.9020057745        3.1197808362
 H          2.4982137583        2.3223324002        3.7439353374
 H         -2.5313853060       -0.2429256250        0.9561256418
 H         -3.4831654076        0.4946426022       -2.1433239181
 H          0.8457846326       -4.6311298604       -1.5709009363
 H         -0.0516520147        4.4041301200        0.8456264492
 H          2.6554874437       -2.9010160445        0.9711584140
 H          3.8688246787        2.9141259450        0.2803104011
 H         -4.5317247447        0.9153832478        1.7609363448
 H         -5.5676102236        0.6722954063       -1.0964826681
 H          2.4113398944       -1.6228419974       -3.0119986984
 H          3.2198127175       -3.8350354813       -1.0641524479
 H          1.4243623132        5.8757980466        1.5614268966
 H          4.1556151477        5.1127878071        0.4161355462