96
HPVISMWRRURKMP-GIRTXBHHSA-N
 C         -8.7625650101       -0.3068276047       -0.3699348537
 C         -8.6199381799        1.0231335872        0.3638217883
 C          3.0026290060       -7.0345465149       -2.6769959682
 C          3.4444564575       -7.0825294829       -1.2177244969
 C          1.9050372459        7.7463957552        0.2537324964
 C          2.8176156297        7.2689230709       -0.8712359871
 C         -7.5630666020       -0.5465010569       -1.2801551048
 C         -7.3215407734        1.0576953098        1.1625051531
 C          1.8408618529       -6.0635630974       -2.8497363498
 C          3.8207196620       -5.6879401418       -0.7311494133
 C          0.8112685331        6.7190345276        0.5220474792
 C          3.4279116673        5.9165524207       -0.5222505822
 C         -2.1127038739       -2.6304618312       -1.6642858810
 C         -1.7374717678        2.4874234659        1.3349577881
 C          2.8140161449        0.1067195503       -0.5633489413
 C         -2.8228831618       -0.7305951599       -2.9660659116
 C         -2.4767021171        0.4668549744        2.4181591925
 C         -0.7150633763       -1.8066479787       -3.4438278881
 C         -0.3113122928        1.3984507245        2.9429224672
 C          4.0562175363       -1.1812279979        1.0489898037
 C          3.9447688105        1.2246140507        1.2449225114
 C         -4.2537263838       -1.5272321217       -1.1161783323
 C         -3.9622926669        1.5666213716        0.7767849390
 C          0.0555677059       -3.7385192375       -2.1097714333
 C          0.4698697181        3.4803678900        1.8898445449
 C          2.9021776988       -2.3431762970       -0.8156222350
 C          2.6106631546        2.5566851945       -0.3595825534
 C         -3.0528277994       -1.6387740542       -1.9313319091
 C         -2.7100374092        1.5108386115        1.5194382622
 C         -0.9420543630       -2.7208626913       -2.4128351635
 C         -0.5423544910        2.4458612699        2.0515686492
 C          3.2687686841       -1.1248010326       -0.1010261658
 C          3.1365114905        1.2825611599        0.1083606208
 C         -1.6581551813       -0.8316526149       -3.7004525137
 C         -1.2799095524        0.4239213440        3.1024474944
 C          4.3855119617       -0.0046467512        1.6946457653
 C         -6.2626473566       -0.5271094796       -0.4757345288
 C         -6.1167641179        0.8332318318        0.2460245275
 C          2.2311073604       -4.6520699787       -2.3881086634
 C          2.6500981477       -4.7091803362       -0.8974462548
 C          1.4099975505        5.3596905622        0.8795147394
 C          2.3395666667        4.8734762439       -0.2634263710
 Br        -1.3321019784        0.4276308056       -5.1063094758
 Br        -0.9456373720       -1.0268374137        4.3066934101
 Br         5.4795403409       -0.0797239761        3.2640234396
 N         -5.1424630062       -0.6633213600       -1.3536676803
 N         -4.9186398320        0.7812973166        1.0254654589
 N          1.1925053758       -3.6981997169       -2.6646958627
 N          0.3585426475        4.3990183325        1.0298330090
 N          3.0208893808       -3.4767836497       -0.2778954602
 N          2.9414994732        3.6532805361        0.1715157567
 H         -8.8330569703       -1.1180864445        0.3582449278
 H         -9.6770536525       -0.3084208896       -0.9656134898
 H         -9.4650719104        1.1696858798        1.0386837398
 H         -8.6214702262        1.8402582570       -0.3610978123
 H          3.8389779297       -6.7129019631       -3.3015493128
 H          2.6974604313       -8.0284892499       -3.0096143943
 H          2.6318353327       -7.4759634736       -0.6026194701
 H          4.3011452526       -7.7497388881       -1.1090541821
 H          1.4498760786        8.7015992572       -0.0136188637
 H          2.4941001076        7.8957273676        1.1614442061
 H          3.6155357638        7.9941435730       -1.0399649113
 H          2.2414167875        7.1799842896       -1.7950260948
 H         -7.5075848270        0.2276809115       -2.0472123697
 H         -7.6516932559       -1.5123659494       -1.7820719473
 H         -7.3251841677        0.2792864443        1.9273875757
 H         -7.2067978086        2.0215068936        1.6630739575
 H          0.9814323419       -6.4064997460       -2.2686787507
 H          1.5389608459       -6.0145067966       -3.8986941022
 H          4.6732265996       -5.3110224708       -1.3007420099
 H          4.1028545270       -5.7110094947        0.3219890370
 H          0.1733969010        7.0468251881        1.3452996111
 H          0.1830338617        6.5958269632       -0.3617178404
 H          4.0452633443        5.9994445734        0.3737755243
 H          4.0627089811        5.5623520320       -1.3372859876
 H         -2.2893545573       -3.3313148991       -0.8609810773
 H         -1.8920731857        3.3038420411        0.6471225050
 H          2.1955451472        0.1491876359       -1.4482442193
 H         -3.5595363090        0.0308205925       -3.1643913131
 H         -3.2390624381       -0.2821140630        2.5578127905
 H          0.1943891221       -1.8829955837       -4.0179069767
 H          0.6122520523        1.3486099480        3.4997904157
 H          4.3937766364       -2.1402241026        1.4073866559
 H          4.2033627251        2.1415416241        1.7493754476
 H         -4.3278287888       -2.2289209839       -0.2724956434
 H         -4.0180929977        2.3322494415       -0.0100707079
 H         -0.2427668253       -4.4869317208       -1.3655273733
 H          1.3339357344        3.4128915728        2.5659599005
 H          2.4853446304       -2.1912397313       -1.8191821116
 H          1.8988472164        2.5018008074       -1.1968320715
 H         -6.2765319785       -1.3193484084        0.2937914881
 H         -6.0704500752        1.6260271990       -0.5214433716
 H          3.0992038613       -4.3156586735       -2.9728940638
 H          1.8044057554       -5.0861861829       -0.3051030584
 H          2.0274692661        5.4323812317        1.7907807240
 H          1.7209927133        4.7284007253       -1.1671280541