96
HPVISMWRRURKMP-GIRTXBHHSA-N
 C         -8.7975946565       -0.6444449912       -1.1037145782
 C         -8.9795955329        0.2585683427        0.1134208057
 C          1.3757842208       -7.1279183505       -0.3849583102
 C          2.0288707676       -6.8135244190        0.9559081268
 C          1.2013617891        7.1327986908        1.0688335241
 C          1.7192166352        6.9075497609       -0.3467789185
 C         -7.4647671292       -0.3649757028       -1.7915478059
 C         -7.8178110661        0.0940031279        1.0885547851
 C          0.4651989903       -5.9802811254       -0.8010313936
 C          2.8349073765       -5.5253298683        0.8531317925
 C          0.2400074706        6.0169917001        1.4562494592
 C          2.4296623106        5.5617103477       -0.4375355844
 C         -1.7532552849       -1.7423126018       -1.5296614152
 C         -2.1679133344        1.7760068134        1.8067665854
 C          2.8550393219        0.3796688425       -0.0021477209
 C         -2.3737072963        0.4736761083       -2.2320144573
 C         -2.9211596727       -0.3392644873        2.6750257063
 C         -0.0911737637       -0.2909066900       -2.4888435985
 C         -0.6841790431        0.4490089173        3.1567912745
 C          4.6370041284       -1.1928079372       -0.4001551564
 C          4.9960072904        1.1617435504       -0.7861899531
 C         -4.0791729580       -1.0300164897       -1.2202941759
 C         -4.4202778111        1.0092264746        1.2200938197
 C          0.5472041631       -2.5896439962       -1.8064988867
 C          0.1060619074        2.6207049737        2.2599766506
 C          2.4551390195       -2.0402442920        0.3729772056
 C          3.2068132873        2.8080252077       -0.4206737170
 C         -2.7251638838       -0.7597017559       -1.6789866834
 C         -3.1655286846        0.8163413219        1.9287296602
 C         -0.4412660476       -1.5250970733       -1.9447963470
 C         -0.9272360855        1.6043383451        2.4164011865
 C          3.3219776267       -0.9292814473       -0.0053577014
 C          3.6835448978        1.4290285775       -0.3989069048
 C         -1.0632854531        0.6872125369       -2.6099373549
 C         -1.6855565264       -0.5008147581        3.2676370370
 C          5.4498085704       -0.1449891811       -0.7770889689
 C         -6.3113646014       -0.5620908049       -0.8104765944
 C         -6.4945178842        0.4017509558        0.3932572475
 C          1.2262329462       -4.6582293159       -0.9083254613
 C          1.9671680486       -4.3414346749        0.4249355183
 C          0.8969716670        4.6377987075        1.3574687324
 C          1.4854075199        4.4173621115       -0.0623124386
 Br        -0.5709068789        2.3867328347       -3.3286617271
 Br        -1.3297793894       -2.1021687031        4.2581772412
 Br         7.2560506090       -0.5046296718       -1.3057795982
 N         -5.0540071571       -0.2516654109       -1.4196791611
 N         -5.3829109255        0.1921716638        1.2703946945
 N          0.2778702287       -3.6136011083       -1.1175184419
 N         -0.1128467093        3.6509015319        1.5667434625
 N          2.8210219421       -3.2302260341        0.1597129745
 N          2.0249210181        3.0906656863       -0.0817797150
 H         -8.8276785454       -1.6897562374       -0.7875518354
 H         -9.6131596707       -0.4837577410       -1.8110027129
 H         -9.9165088326        0.0169478882        0.6184112035
 H         -9.0319064458        1.3000002935       -0.2123525757
 H          2.1487403353       -7.2763454407       -1.1424419953
 H          0.7915398771       -8.0469338730       -0.3138231648
 H          1.2575686216       -6.7026265925        1.7212388388
 H          2.6876490482       -7.6304003883        1.2553027529
 H          0.6878483750        8.0935986445        1.1327580602
 H          2.0417604781        7.1535182742        1.7671805711
 H          2.4122355017        7.7041783128       -0.6249206351
 H          0.8840616492        6.9253278771       -1.0498919895
 H         -7.4358586368        0.6592965064       -2.1664108892
 H         -7.3257912930       -1.0386618933       -2.6396714950
 H         -7.7834741681       -0.9268431349        1.4724116415
 H         -7.9357147338        0.7696389450        1.9381871623
 H         -0.3317193213       -5.8502937937       -0.0668671597
 H          0.0022419401       -6.1896642845       -1.7676588425
 H          3.6334207334       -5.6409059931        0.1180449998
 H          3.2940168899       -5.2846004480        1.8140467623
 H         -0.1177955777        6.1584048372        2.4783085650
 H         -0.6256861954        6.0227689634        0.7923342010
 H          3.2874759027        5.5593222616        0.2411457640
 H          2.7907610056        5.4045357048       -1.4568045361
 H         -1.9966315651       -2.7017587033       -1.1010931977
 H         -2.3279341418        2.6745473194        1.2324715987
 H          1.8420877943        0.6098026397        0.2904740341
 H         -3.1293279875        1.2337802924       -2.3467733423
 H         -3.6975360316       -1.0817085167        2.7649800712
 H          0.9247707627       -0.0979343761       -2.7996597009
 H          0.2734479390        0.2933820632        3.6313264609
 H          4.9853851771       -2.2128522591       -0.3986870708
 H          5.6499192074        1.9649559093       -1.0907252912
 H         -4.1973342934       -1.9724881081       -0.6655787216
 H         -4.4635483931        1.9143941902        0.5975195246
 H          1.5010474243       -2.4513701027       -2.3350548059
 H          1.0627070805        2.4337519270        2.7687106815
 H          1.4918472038       -1.7789094553        0.8321951537
 H          3.9464171821        3.5425295097       -0.7567894863
 H         -6.3212031791       -1.5931134899       -0.4141644863
 H         -6.5024465288        1.4309354696       -0.0066807410
 H          1.9891619240       -4.7015759189       -1.7039034247
 H          1.1992055962       -4.1152430541        1.1834323546
 H          1.7267666408        4.5465959061        2.0832563091
 H          0.6356675974        4.3952903580       -0.7569498489