96

C     -4.304340   -5.367004    0.782206
C     -3.204239   -6.165796    1.484320
C     -3.377866    6.255187    3.205678
C     -2.190181    7.028743    2.639710
C      6.773796    0.456695    2.632718
C      7.066523    1.543988    1.605209
C     -3.918203   -4.990183   -0.644371
C     -1.800225   -5.873481    0.950654
C     -4.020990    5.355012    2.153828
C     -1.166474    6.100710    1.990701
C      5.980899   -0.689293    2.013298
C      5.782504    2.074451    0.977444
C     -3.516272    0.144388   -0.577305
C      2.419825   -3.397785   -0.478846
C      1.078048    2.509627   -0.959566
C     -4.492284   -0.175647   -2.778567
C      2.361038   -5.178957   -2.123501
C     -4.545151    2.011689   -1.733679
C      4.384029   -3.868463   -1.820879
C     -0.654297    2.335461   -2.653258
C      1.281848    0.885380   -2.754816
C     -3.449481   -2.109050   -1.641431
C      0.330799   -4.733007   -0.776330
C     -3.425920    2.382687    0.467534
C      4.481703   -2.023545   -0.171276
C     -0.967160    3.944786   -0.820930
C      3.093740    1.033437   -1.087092
C     -3.832472   -0.685139   -1.658069
C      1.731861   -4.426477   -1.129306
C     -3.867722    1.494261   -0.625210
C      3.745155   -3.122585   -0.827925
C     -0.143990    2.924316   -1.491926
C      1.792601    1.496449   -1.604457
C     -4.849827    1.172039   -2.803681
C      3.684694   -4.892879   -2.460473
C      0.057283    1.308430   -3.267908
C     -2.662255   -4.098198   -0.690143
C     -1.676937   -4.426332    0.467699
C     -2.994974    4.408473    1.521938
C     -1.811005    5.215621    0.918107
C      4.691113   -0.192470    1.344625
C      4.941092    0.960376    0.335709
Br    -5.733592    1.873743   -4.320266
Br     4.542348   -5.905507   -3.808121
Br    -0.662610    0.463363   -4.798449
N     -3.059340   -2.680643   -0.556473
N     -0.279991   -4.075883    0.141138
N     -3.675148    3.649210    0.446977
N      3.934334   -1.316323    0.749299
N     -0.770517    4.292514    0.406509
N      3.662301    1.580374   -0.069609
H     -5.232998   -5.949106    0.780982
H     -4.512187   -4.453441    1.353336
H     -3.245406   -5.950630    2.559026
H     -3.402080   -7.239676    1.381236
H     -3.043650    5.643661    4.052867
H     -4.123322    6.958058    3.594398
H     -1.710659    7.603855    3.439802
H     -2.547753    7.752404    1.896842
H      7.715126    0.073561    3.042567
H      6.209872    0.883484    3.471129
H      7.607311    2.367069    2.085798
H      7.721464    1.144679    0.821226
H     -4.766566   -4.502932   -1.138660
H     -3.719647   -5.911931   -1.206566
H     -1.059422   -6.087831    1.730383
H     -1.585191   -6.566547    0.127846
H     -4.830315    4.774194    2.612562
H     -4.486463    5.975901    1.377209
H     -0.699906    5.474611    2.762475
H     -0.360140    6.696834    1.546479
H      5.737066   -1.427946    2.786467
H      6.623603   -1.202321    1.288404
H      5.192422    2.589909    1.747116
H      6.028647    2.831433    0.222589
H     -2.978003   -0.261182    0.277540
H      1.924250   -2.812673    0.295430
H      1.464698    2.964010   -0.049152
H     -4.730467   -0.820334   -3.620226
H      1.829004   -5.980332   -2.629063
H     -4.811713    3.065956   -1.763995
H      5.414199   -3.656412   -2.094368
H     -1.612275    2.653822   -3.056001
H      1.829937    0.083557   -3.241702
H     -3.525727   -2.657595   -2.597778
H     -0.154173   -5.548896   -1.340059
H     -2.820755    1.912572    1.264800
H      5.507336   -1.833409   -0.532148
H     -1.808776    4.350587   -1.413091
H      3.558177    0.191668   -1.629372
H     -2.169213   -4.249310   -1.659213
H     -1.934903   -3.789273    1.325783
H     -2.611209    3.743152    2.308383
H     -2.180721    5.869558    0.114816
H      4.047529    0.204307    2.142246
H      5.488928    0.586177   -0.539782
