64
RUQARIUHZQLYSV-WZHDYRIBSA-N
 C          7.1651537468        0.4877078587       -0.0544194425
 C          6.9386413309       -0.2882898049        1.2397794252
 C         -6.9919095108        0.4473316408       -0.0641631728
 C         -6.7853970933       -0.2802590977        1.2593975989
 C          5.9948424426        1.4255736679       -0.3313116852
 C          5.6312139534       -1.0717537121        1.1693419839
 C         -5.7765956040        1.3093051925       -0.3815088553
 C         -5.5339470900       -1.1461766289        1.1915678267
 C          0.1042512642        1.1924529515       -1.3430983972
 C          0.4123837756       -1.4220727092        0.9283431586
 C          1.2438747534        3.2324202563       -0.7568393469
 C          1.1825374792       -3.6308333170        0.3468482676
 C         -1.1731094640        3.1531590194       -0.7786711040
 C         -1.1821487548       -3.1441789579        0.3834204343
 C          2.5403486326        1.1447255630       -1.1332560629
 C          2.8564570060       -1.8889986117        0.8250231602
 C         -2.3409913872        1.0028274445       -1.1966634969
 C         -2.0156248967       -0.9082448155        1.0127141960
 C          1.2894605426        1.8853336133       -1.1140750304
 C          1.4627962199       -2.3140251261        0.7091529556
 C         -1.1265128398        1.8065846015       -1.1391024272
 C         -0.9083743815       -1.8294515332        0.7715851325
 C          0.0128300033        3.8452661317       -0.6204069307
 C         -0.1353129475       -4.0195421822        0.1837677858
 C          4.6771228026        0.6574418569       -0.3886580818
 C          4.4585828900       -0.1147360195        0.9464455951
 C         -4.4962454816        0.4786921299       -0.4536234685
 C         -4.2885429152       -0.3188525958        0.8692052424
 Br        -0.0536916291        5.7003655138       -0.1549357416
 Br        -0.5116406043       -5.8269073380       -0.3316182416
 N          3.5776313736        1.5601413642       -0.5464183751
 N          3.1386740123       -0.6631774425        0.9136364475
 N         -3.3776503538        1.3576574052       -0.5690694764
 N         -3.1937557383       -1.2143294047        0.6722518633
 H          8.0878096536        1.0662062888        0.0149874631
 H          7.2721089566       -0.2147137134       -0.8849902544
 H          7.7687127730       -0.9767214853        1.4113287412
 H          6.8989948709        0.4075611476        2.0805102807
 H         -7.8810834986        1.0779568818       -0.0124271074
 H         -7.1415213069       -0.2829513767       -0.8626654836
 H         -6.6817374803        0.4500931335        2.0649797489
 H         -7.6493007705       -0.9088024221        1.4824394280
 H          5.9182470334        2.1787482835        0.4539590667
 H          6.1403221457        1.9434302760       -1.2813737499
 H          5.6846320527       -1.7884781612        0.3456959765
 H          5.4715334851       -1.6245649458        2.0987610061
 H         -5.9099275621        1.8207486647       -1.3369855455
 H         -5.6431150762        2.0692185820        0.3903234957
 H         -5.3713356420       -1.6573023451        2.1427280465
 H         -5.6450609738       -1.9063248733        0.4163839324
 H          0.1402795873        0.1480023066       -1.6173509594
 H          0.6513296397       -0.4091096218        1.2131244365
 H          2.1662481313        3.7622513719       -0.5832619022
 H          1.9836578420       -4.3362904901        0.1849606074
 H         -2.1303862381        3.6237405046       -0.6229706765
 H         -2.2091440998       -3.4467514478        0.2578149750
 H          2.4934705399        0.1561401985       -1.6142130358
 H          3.5962033436       -2.6981666300        0.8038102461
 H         -2.2744654820        0.0571368309       -1.7540287457
 H         -1.7602708666        0.0367750569        1.5118007795
 H          4.7023837680       -0.0955543617       -1.1985022206
 H          4.4333817163        0.6362752172        1.7467749333
 H         -4.5431956983       -0.2547459054       -1.2764296290
 H         -4.0862244717        0.4187516065        1.6640457220