64

C     -5.905755   -2.599208   -2.433094
C     -6.426532   -1.305650   -1.814954
C      6.592277    1.578304    0.209357
C      6.277632    2.351841    1.483864
C     -4.746211   -3.182698   -1.631044
C     -5.311122   -0.284706   -1.596937
C      5.577374    0.463535   -0.015391
C      4.875307    2.945570    1.436210
C      0.933290   -1.845227   -0.261028
C     -0.927248    1.616516    0.601674
C     -0.164476   -3.781686    0.699516
C     -2.489277    3.467766    0.492197
C      2.088774   -3.189162    1.392261
C     -0.132591    3.880462    0.936391
C     -1.390787   -2.297872   -0.901983
C     -3.304165    1.151780    0.093047
C      3.147768   -1.091698    0.578889
C      1.451934    1.950461    1.117555
C     -0.181088   -2.678951   -0.154777
C     -2.220088    2.103294    0.396010
C      2.054109   -2.085899    0.537800
C      0.110072    2.507868    0.878151
C      0.979790   -4.037292    1.455868
C     -1.435363    4.348785    0.751044
C     -3.622933   -2.156001   -1.449405
C     -4.167966   -0.870895   -0.755291
C      4.138337    0.998034   -0.039902
C      3.786933    1.887557    1.191236
Br     1.015283   -5.527022    2.620588
Br    -1.781780    6.205501    0.854472
N     -2.555659   -2.791077   -0.637745
N     -3.063815    0.102273   -0.610646
N      3.151216   -0.090693   -0.226313
N      2.527611    2.643229    0.972732
H     -6.718150   -3.332101   -2.493842
H     -5.575321   -2.403686   -3.460724
H     -7.198401   -0.874197   -2.462299
H     -6.905629   -1.529433   -0.853742
H      7.599139    1.150980    0.276561
H      6.589932    2.260232   -0.649641
H      6.368145    1.688704    2.352759
H      7.011345    3.155058    1.615865
H     -5.109121   -3.518993   -0.651116
H     -4.359603   -4.073235   -2.141336
H     -4.924269    0.050685   -2.567952
H     -5.736087    0.601137   -1.111900
H      5.796883   -0.050766   -0.958824
H      5.710602   -0.279247    0.778686
H      4.668809    3.473852    2.375291
H      4.836966    3.705671    0.644130
H      0.908135   -0.973734   -0.912791
H     -0.740199    0.548187    0.543204
H     -1.042207   -4.418996    0.779371
H     -3.497259    3.843335    0.340050
H      2.956976   -3.377176    2.018070
H      0.685705    4.567647    1.138596
H     -1.249095   -1.518584   -1.674712
H     -4.303668    1.389682    0.497673
H      3.897569   -1.223569    1.377177
H      1.474392    0.890792    1.419581
H     -3.241378   -1.897191   -2.448448
H     -4.537563   -1.139706    0.244119
H      4.049335    1.631479   -0.933524
H      3.703162    1.266139    2.093333
