128

C     -3.466750   -2.443065    3.860863
C     -2.011650   -2.851420    3.678833
C     -3.495903    9.771053   -1.297437
C     -2.249254    9.681275   -2.179430
C     -2.074653   -9.491451   -2.612603
C     -0.848256  -10.142747   -1.976871
C      3.751446    0.897952    3.408840
C      5.062237    0.356827    2.839414
C     -4.032306   -1.848065    2.577256
C     -1.159123   -1.660752    3.259394
C     -3.840347    8.457690   -0.591534
C     -2.071816    8.285119   -2.763917
C     -2.150721   -7.996574   -2.307875
C      0.443291   -9.418502   -2.352167
C      2.500966    0.311161    2.759745
C      4.868906   -0.805233    1.875485
C     -3.318623    4.061190    1.972620
C     -0.641534   -3.069460   -1.667707
C      1.474137    4.110290   -0.311243
C      3.240135   -4.220440   -1.316117
C     -3.795065    3.111789    4.151583
C      0.525238   -1.010992   -2.218660
C     -3.630144    5.521683    3.882006
C      0.610549   -2.891089   -3.741857
C      2.266632    6.318364   -0.940513
C      3.902464   -5.657491   -3.155679
C      3.837605    4.648838   -0.158569
C      5.045070   -3.547743   -2.790734
C     -3.389204    1.618664    2.182727
C     -0.717008   -1.126541   -0.096156
C     -3.083572    6.514166    1.669992
C     -0.420515   -5.054283   -3.171260
C     -0.170495    5.803182   -1.062728
C      1.981482   -6.306244   -1.695051
C      3.090996    2.402843    0.544266
C      4.385399   -2.035033   -0.944328
C     -3.523733    2.950997    2.792273
C     -0.283045   -1.756853   -1.354776
C     -3.363888    5.343850    2.523557
C     -0.188117   -3.631013   -2.863316
C      1.220772    5.405087   -0.773441
C      3.085558   -5.397110   -2.053421
C      2.786145    3.740681   -0.000826
C      4.216967   -3.295111   -1.694740
C     -3.850831    4.399848    4.685331
C      0.968588   -1.586951   -3.406470
C      3.568963    5.931882   -0.633818
C      4.880275   -4.730594   -3.513301
C     -3.207407   -0.676272    2.033939
C     -1.681967   -0.949515    2.006061
C     -2.589453    7.617946   -0.328617
C     -1.915023    7.211828   -1.671092
C     -0.861601   -7.280379   -2.720215
C      0.363132   -7.927619   -2.010420
C      2.586856    0.175872    1.233624
C      3.913079   -0.456904    0.722117
Br    -4.211424    4.632339    6.527290
Br     2.110459   -0.607282   -4.550797
Br     4.988048    7.161932   -0.851565
Br     5.985891   -5.068722   -5.009356
N     -3.469921    0.525649    2.865807
N     -1.362042   -1.770552    0.817012
N     -2.952128    6.382320    0.394752
N     -0.968854   -5.857712   -2.321932
N     -0.465867    6.999678   -1.446085
N      1.616409   -7.276595   -2.467578
N      2.216706    1.461384    0.580499
N      3.595404   -1.721187    0.023240
H     -4.059710   -3.317978    4.150692
H     -3.550275   -1.716508    4.678060
H     -1.938970   -3.646572    2.927082
H     -1.626237   -3.264623    4.617862
H     -3.343048   10.563044   -0.554290
H     -4.357243   10.081139   -1.901458
H     -2.315626   10.423390   -2.983111
H     -1.362548    9.941471   -1.587826
H     -2.041078   -9.638984   -3.699160
H     -2.982922   -9.987325   -2.252024
H     -0.785903  -11.191583   -2.288183
H     -0.961446  -10.140512   -0.885683
H      3.743082    1.990543    3.317325
H      3.713185    0.696096    4.486602
H      5.716043    0.044532    3.662531
H      5.596371    1.165678    2.326395
H     -4.066793   -2.637009    1.814729
H     -5.068516   -1.532463    2.748908
H     -1.135423   -0.940991    4.087934
H     -0.125135   -1.991073    3.102210
H     -4.541813    7.883256   -1.211256
H     -4.374455    8.677409    0.340449
H     -1.216366    8.272222   -3.449812
H     -2.957667    8.049407   -3.368233
H     -2.336066   -7.849924   -1.235870
H     -3.006661   -7.557094   -2.834056
H      0.638197   -9.548268   -3.424640
H      1.288438   -9.877438   -1.825126
H      1.625436    0.906694    3.046297
H      2.337769   -0.689192    3.183031
H      4.492454   -1.676434    2.428333
H      5.842386   -1.106770    1.469194
H     -3.101673    3.934862    0.914362
H     -1.243949   -3.655099   -0.975757
H      0.662674    3.400456   -0.171364
H      2.590245   -4.008063   -0.469039
H     -3.949532    2.238945    4.782214
H      0.828924   -0.001103   -1.952109
H     -3.663713    6.518534    4.313202
H      0.983934   -3.340702   -4.658410
H      2.058464    7.323282   -1.301996
H      3.764302   -6.570532   -3.730650
H      4.857273    4.363633    0.086934
H      5.805313   -2.829798   -3.086570
H     -3.175623    1.607448    1.097207
H     -0.448070   -0.060230    0.019296
H     -2.982501    7.491993    2.175184
H     -0.013312   -5.412837   -4.135062
H     -0.942366    5.023841   -0.925154
H      1.434748   -6.059884   -0.765059
H      4.115408    2.272409    0.927941
H      5.226634   -1.385888   -1.247986
H     -3.563812   -0.497979    1.008798
H     -1.150914    0.011511    1.959605
H     -1.876533    8.203984    0.269565
H     -2.369860    6.290874   -2.063958
H     -0.748272   -7.382850   -3.809111
H      0.246162   -7.835516   -0.920773
H      1.772142   -0.502239    0.955922
H      4.416887    0.230927    0.032408
