  96

 C         -5.9781608496       -2.3622247735        2.3242906674
 C         -6.5602071787       -1.5835305900        1.1509501220
 C          5.1619963673       -5.8065910698       -2.3373636226
 C          6.1989333399       -4.6808491308       -2.2413457362
 C          2.1230274445        7.7540455249       -1.9600234333
 C          3.1691076423        6.7202993667       -2.3683583586
 C         -4.7930593716       -1.5947582446        2.8997802528
 C         -5.5088963802       -1.4479365141        0.0576691524
 C          3.8683529074       -5.2919152056       -2.9566244767
 C          5.5370730164       -3.3220414408       -1.9813022065
 C          0.7561518443        7.1008349052       -1.7820236579
 C          3.2285198850        5.5798256258       -1.3570976166
 C         -0.7840816375       -3.9895019518        0.5447877747
 C         -2.5767417139        3.6783231503        0.2166335873
 C          2.5713530212        0.3096950640       -0.1644230634
 C         -1.5185587937       -5.7023730583        2.0648819412
 C         -4.7522730353        3.5270319326        1.2360190448
 C          0.4182698683       -6.0703324170        0.6593685616
 C         -3.5335913549        5.6191540001        1.2645684668
 C          2.0092120735       -0.6672268189        1.9647428897
 C          1.4720399776        1.6444893450        1.5128318337
 C         -2.7178440386       -3.5259663950        2.0061224644
 C         -3.6634038296        1.4938310013        0.2890012908
 C          1.1955669142       -4.2748557491       -0.8769600603
 C         -1.2334472814        5.7326332306        0.3229892762
 C          3.1978770495       -2.0477363057        0.3102631207
 C          2.0053566325        2.6640400091       -0.6750406194
 C         -1.6707414842       -4.4266118328        1.5269794803
 C         -3.6892720727        2.9205696583        0.5642859029
 C          0.2622411589       -4.7937923805        0.1127675733
 C         -2.4772887817        5.0166715961        0.5841356377
 C          2.5862052181       -0.7842124035        0.6999907575
 C          2.0278121601        1.5252404439        0.2374237554
 C         -0.4796023076       -6.5006134544        1.6153087599
 C         -4.6610447181        4.8681306627        1.5522269383
 C          1.4572987807        0.5426732044        2.3438239341
 C         -3.6969662697       -1.3291351369        1.8639442750
 C         -4.2504183725       -0.7245602211        0.5428717193
 C          3.1989402565       -4.2385603803       -2.0628408117
 C          4.2475457959       -3.4996348116       -1.1837589532
 C          0.8374003040        5.9789884802       -0.7396759078
 C          1.8494801723        4.9241157727       -1.2182653874
 Br        -0.2762990352       -8.2556332402        2.3601839070
 Br        -6.1276011782        5.7144000651        2.4506712043
 Br         0.6443191213        0.6894338084        4.0730269738
 N         -2.8140474548       -2.3839363233        1.4817005638
 N         -4.4956748262        0.6709382966        0.7616219746
 N          2.2785623604       -4.8588773870       -1.1601581642
 N         -0.4355988505        5.3386171669       -0.5713896356
 N          3.6897012671       -2.2299523596       -0.8393755708
 N          1.8999108445        3.8524838185       -0.2651125753
 H         -6.7334554784       -2.4993326283        3.1009054496
 H         -5.6620778238       -3.3508016797        1.9818498361
 H         -6.8635039534       -0.5905108375        1.4852579914
 H         -7.4374093855       -2.0965338911        0.7519027272
 H          5.5595162403       -6.6253877152       -2.9387391603
 H          4.9393845804       -6.2028996278       -1.3458161230
 H          6.9018180917       -4.9097921417       -1.4384616152
 H          6.7690549438       -4.6217928016       -3.1698713826
 H          2.0567345146        8.5352060783       -2.7196376230
 H          2.4241236339        8.2226773574       -1.0203117264
 H          4.1499910320        7.1937429056       -2.4406755819
 H          2.9163544058        6.3176010993       -3.3518966106
 H         -4.3606128967       -2.1221072160        3.7535431450
 H         -5.1423212747       -0.6230925793        3.2532326927
 H         -5.9153468516       -0.8980638796       -0.7939812164
 H         -5.2109199672       -2.4406444435       -0.2886328115
 H          3.1651044203       -6.1141448027       -3.0978899123
 H          4.0795616386       -4.8535795840       -3.9326034310
 H          5.2886436965       -2.8218792334       -2.9179236048
 H          6.2121749034       -2.6681862121       -1.4268449808
 H          0.0210982130        7.8391266753       -1.4535036334
 H          0.4099149660        6.6789107800       -2.7276949060
 H          3.5411047900        5.9523913964       -0.3797848977
 H          3.9506286208        4.8249589845       -1.6764647845
 H         -0.9218259360       -2.9980655498        0.1430106184
 H         -1.7472582806        3.2341284293       -0.3105373738
 H          3.0104563346        0.1936779308       -1.1429362476
 H         -2.1968706897       -6.0633002796        2.8232891832
 H         -5.6144836195        2.9374471372        1.5018580408
 H          1.2336058289       -6.6909745192        0.3245486349
 H         -3.4778176483        6.6567254818        1.5572193757
 H          1.9907444207       -1.5120994333        2.6367098031
 H          1.0553511302        2.5909648068        1.8172622406
 H         -3.3394418510       -3.9003573506        2.8265977634
 H         -2.8069708871        1.1606743037       -0.3185954853
 H          0.9047478444       -3.3224603443       -1.3450052673
 H         -1.0229110481        6.5909610382        0.9775463459
 H          3.2138551727       -2.8298537203        1.0843176626
 H          2.0784103294        2.4119993941       -1.7435593607
 H         -3.0174786300       -0.5685592629        2.2820147413
 H         -3.4528650266       -0.8632630790       -0.2123360211
 H          2.6985657699       -3.4727051451       -2.6815321054
 H          4.4355449428       -4.1137768312       -0.2865995287
 H          1.1896948634        6.4062571551        0.2136353579
 H          1.5299523130        4.5536093020       -2.2075881651
          96
       -142.74729158
 C         -7.7941016287        0.2367875223       -3.6249272188
 C         -8.0937633039        1.3728168967       -2.6510497318
 C          1.1923634253       -6.9916084277        1.8376245705
 C          1.8551502701       -6.2950891611        3.0218855952
 C          1.4826956301        6.8925222602        3.6447353230
 C          2.5635552376        6.9275102062        2.5681624653
 C         -6.2929600464        0.1175829766       -3.8672403640
 C         -7.3485543726        1.1657495485       -1.3365108515
 C          0.3471553021       -6.0023429257        1.0429367579
 C          2.7060451971       -5.1239895382        2.5438045068
 C          0.3275138986        5.9932871276        3.2174134219
 C          3.0576373948        5.5191158912        2.2554907245
 C         -1.2784284458       -2.0403205901       -1.5951053431
 C         -2.3032745581        2.0303512970        1.5024839382
 C          2.6386000294        0.5271158206        0.8974648195
 C         -1.3025538746       -0.0491943407       -2.9526658501
 C         -3.4724249106       -0.0603742126        1.7639855342
 C          0.7935969828       -1.1150659262       -2.4008428125
 C         -1.6236918242        0.4845597314        3.2188805610
 C          4.0475520129       -1.0582887575       -0.2400820361
 C          4.2388541809        1.3023420517       -0.7260388844
 C         -3.4433564155       -1.0019327068       -2.1537652808
 C         -4.1434698197        1.4835910788       -0.0465655954
 C          0.8702657537       -3.1475471888       -1.0211028550
 C         -0.4117928440        2.6163704129        2.9984783529
 C          2.3089898242       -1.8783797525        1.3215591528
 C          2.8066669844        2.9482751560        0.4470354298
 C         -1.9907649635       -1.0350709324       -2.2412041228
 C         -3.3073035420        1.1574480226        1.0993845892
 C          0.1107704879       -2.0935618673       -1.6798624538
 C         -1.4639302484        1.7069383525        2.5667303371
 C          3.0208300834       -0.7901209490        0.6682256138
 C          3.2417604598        1.5750645893        0.2080306450
 C          0.0747664070       -0.1012737021       -3.0074198523
 C         -2.6218482941       -0.3778738651        2.8020348131
 C          4.6360423324       -0.0097249018       -0.9181135683
 C         -5.5541061832       -0.1079846349       -2.5498147159
 C         -5.8435572397        1.0704986763       -1.5840175651
 C          1.1946159515       -4.8317787776        0.5509462027
 C          1.8586966946       -4.1193582675        1.7640466211
 C          0.8318490116        4.5800589518        2.9219379532
 C          1.8929372808        4.6291633367        1.8043089877
 Br         1.0262181319        1.2686971980       -3.9429713248
 Br        -2.8081055924       -2.0687334621        3.6787317261
 Br         6.0250037839       -0.3824379967       -2.1846363230
 N         -4.1396796509       -0.1432800683       -2.7647858194
 N         -5.1462982530        0.7876273502       -0.3687421260
 N          0.3647299618       -3.8783041231       -0.1224598243
 N         -0.2499244691        3.7548360702        2.4780775496
 N          2.6831114541       -3.0818932340        1.2343647284
 N          2.3446934026        3.2866811378        1.5704291437
 H         -8.1695721717       -0.7028595433       -3.2132813470
 H         -8.3030534060        0.4156650490       -4.5736589716
 H         -9.1665226627        1.4237938175       -2.4567083213
 H         -7.7863857691        2.3224147381       -3.0951314323
 H          1.9614273302       -7.4161479461        1.1880909820
 H          0.5609885994       -7.8085302294        2.1909284906
 H          1.0855173634       -5.9287181871        3.7050318218
 H          2.4831615880       -7.0011525585        3.5679722396
 H          1.1104686236        7.9014000133        3.8309646401
 H          1.9102356829        6.5142426759        4.5762143834
 H          3.4030127687        7.5399843509        2.9024410193
 H          2.1573692028        7.3782270669        1.6598739136
 H         -5.9086729246        1.0276240774       -4.3307731626
 H         -6.0802992902       -0.7175817198       -4.5377067941
 H         -7.6811716655        0.2468843778       -0.8509776658
 H         -7.5409452452        1.9966425189       -0.6543950015
 H         -0.4584854528       -5.6073115609        1.6641309255
 H         -0.1037823104       -6.4943297330        0.1789962561
 H          3.5091912267       -5.4774170154        1.8950330191
 H          3.1604908000       -4.6110041211        3.3940753262
 H         -0.4275597383        5.9434254807        4.0045492646
 H         -0.1492975143        6.3872672555        2.3183918845
 H          3.5162626460        5.0734086084        3.1407411952
 H          3.8093881004        5.5451926304        1.4632486980
 H         -1.7861781301       -2.8042659954       -1.0273587016
 H         -2.1540171026        2.9751204759        1.0041002620
 H          1.8561465301        0.7609177523        1.6021750173
 H         -1.8639880166        0.7294304470       -3.4432317384
 H         -4.2541333907       -0.7291343568        1.4424113477
 H          1.8704388553       -1.1429469881       -2.4696818127
 H         -0.9741978162        0.2137883278        4.0381500317
 H          4.3511109191       -2.0802270440       -0.4011241029
 H          4.7013714656        2.1025334268       -1.2833511413
 H         -3.8951786042       -1.7721712386       -1.5131227673
 H         -3.8276139406        2.3611878285       -0.6289994561
 H          1.9135472311       -3.2567760230       -1.3491796409
 H          0.2347731634        2.2488856394        3.8091053121
 H          1.4037093521       -1.5867404112        1.8742454620
 H          2.9057015353        3.6432884706       -0.3985320704
 H         -5.9120206157       -1.0308215838       -2.0608159899
 H         -5.4755199148        1.9977449204       -2.0583025239
 H          2.0118830593       -5.1858668034       -0.0990157357
 H          1.0508826378       -3.7184679453        2.4017480556
 H          1.3169945084        4.1545195868        3.8187862081
 H          1.4429365145        5.0606671306        0.8963285602
          96
       -142.75144683
 C         -8.5464148665       -0.6852115786       -0.8482563935
 C         -8.6229081655        0.3548091933        0.2661977619
 C          1.6986058271       -7.5559911659       -1.0364030544
 C          2.1457554773       -7.2977565565        0.3983452383
 C          1.3912848153        7.5402219870        0.9304873827
 C          1.8827643073        7.2601710678       -0.4854040590
 C         -7.2550812783       -0.5301901278       -1.6453797856
 C         -7.4038787888        0.2605908004        1.1784534427
 C          0.7160786746       -6.4805462653       -1.4832753544
 C          2.7855713868       -5.9195036420        0.5107271283
 C          0.4263118069        6.4491008561        1.3772108628
 C          2.5652243765        5.8993967511       -0.5448062180
 C         -1.6481735055       -2.1350113997       -1.8727292706
 C         -1.8573522096        2.0735834453        1.7693917360
 C          1.8781284553       -0.0187181402        0.0217427893
 C         -2.2554184561        0.0785704531       -2.5969265539
 C         -2.4991122665       -0.0862436894        2.6158171379
 C         -0.0306694060       -0.7714725650       -3.0219882761
 C         -0.3205463744        0.8269663486        3.1399487701
 C          3.9905022966       -1.1736474000        0.1420472255
 C          3.9378198693        1.2297886828       -0.0682727953
 C         -3.9028388188       -1.3024277296       -1.3543406779
 C         -4.0587425642        1.1750928526        1.1499720528
 C          0.6217381066       -3.0323676147       -2.2599477829
 C          0.3650570059        3.0357409203        2.2568987929
 C          1.9039478850       -2.4846828164        0.2558487728
 C          1.7981433915        2.4455405484       -0.2301961561
 C         -2.5938316903       -1.1205479191       -1.9646337749
 C         -2.7984297334        1.0554624421        1.8680729192
 C         -0.3685297452       -1.9725602550       -2.4006660442
 C         -0.6192686039        1.9704487226        2.4010952887
 C          2.5953032372       -1.2057170984        0.1450547529
 C          2.5427038286        1.1992362696       -0.0926488637
 C         -0.9821634624        0.2304551913       -3.1075111272
 C         -1.2684400239       -0.1777587716        3.2340476022
 C          4.6356770076        0.0433260522        0.0426797085
 C         -6.0433338264       -0.6525356957       -0.7216607566
 C         -6.1206280952        0.4434139728        0.3692074936
 C          1.3321427523       -5.0855225951       -1.3875180068
 C          1.8246418981       -4.8173543979        0.0684737904
 C          1.0796242731        5.0679644844        1.3313805420
 C          1.6259792434        4.7795951327       -0.0994922782
 Br        -0.5031929998        1.8896609715       -3.9374013849
 Br        -0.8447803443       -1.7546297114        4.2376617106
 Br         6.5477002544        0.0862859641        0.0565929179
 N         -4.8274566064       -0.4481506933       -1.4480736108
 N         -4.9662651709        0.2990289290        1.2031423305
 N          0.3338689835       -4.1064788142       -1.6582751208
 N          0.0924459358        4.0740830773        1.5900424384
 N          2.5187465775       -3.5704320728        0.0548833705
 N          2.3631247148        3.5583222599       -0.0347154852
 H         -8.5841403386       -1.6866672430       -0.4134777416
 H         -9.4018317356       -0.5766718028       -1.5173232837
 H         -9.5299266218        0.2035865228        0.8540529654
 H         -8.6689286955        1.3542010984       -0.1725285495
 H          2.5691433699       -7.5517470599       -1.6962273097
 H          1.2232670699       -8.5355153715       -1.1113610382
 H          1.2827392137       -7.3543618568        1.0655223740
 H          2.8637903393       -8.0579789393        0.7102849208
 H          0.8876569515        8.5076468113        0.9694875742
 H          2.2438893104        7.5755607775        1.6124231819
 H          2.5861466731        8.0333771623       -0.7988191957
 H          1.0361470584        7.2737205058       -1.1753758663
 H         -7.2244584371        0.4437604711       -2.1364745570
 H         -7.1895704093       -1.2996840732       -2.4175109800
 H         -7.3712589048       -0.7118242603        1.6724252354
 H         -7.4466639083        1.0305095307        1.9516523882
 H         -0.1765450046       -6.5021250408       -0.8558618610
 H          0.4061587708       -6.6516140560       -2.5163284050
 H          3.6772280248       -5.8652730459       -0.1161665399
 H          3.0860081160       -5.7213828288        1.5413970685
 H          0.0839590880        6.6357907579        2.3973118703
 H         -0.4491162868        6.4319305012        0.7259196719
 H          3.4406218239        5.8880915618        0.1067860756
 H          2.8990784213        5.6838832910       -1.5615726047
 H         -1.8819896653       -3.0698397564       -1.3879373221
 H         -2.0624212590        2.9654770281        1.1983308640
 H          0.7972094563       -0.0430611112        0.0127133917
 H         -2.9932856084        0.8612975476       -2.6658973855
 H         -3.2329674348       -0.8723943168        2.6895344985
 H          0.9606788733       -0.6232794549       -3.4233108483
 H          0.6375178741        0.7253817814        3.6274505554
 H          4.5326007882       -2.1018431222        0.2234623145
 H          4.4385888745        2.1813368014       -0.1446405245
 H         -4.0244383238       -2.2312629722       -0.7782806836
 H         -4.1574022583        2.0773523034        0.5291867918
 H          1.6140039066       -2.8381421335       -2.6914667345
 H          1.3361729984        2.8793248644        2.7479941977
 H          0.8376372898       -2.4398234973        0.5177245153
 H          0.7404849545        2.3513611989       -0.5130677262
 H         -6.0503099876       -1.6350893764       -0.2170528923
 H         -6.1291695986        1.4241367301       -0.1387839870
 H          2.2064499022       -4.9916049776       -2.0543451133
 H          0.9306384683       -4.7887042240        0.7130982957
 H          1.9314299538        5.0090753562        2.0308192357
 H          0.7547074075        4.7035655696       -0.7704733073
