  96

 C         -4.1910186775       -5.0885176693        0.9656917718
 C         -3.0721267014       -5.9003722957        1.6303362744
 C         -3.1481082935        6.2526852904        3.1794341625
 C         -2.0367395863        7.0076761891        2.4566508242
 C          6.5856142372        0.4859622395        2.7835249244
 C          6.7761954180        1.6688652995        1.8394389912
 C         -3.9241776913       -4.9410565837       -0.5264531684
 C         -1.7355277638       -5.7088153430        0.9069675797
 C         -3.8744822146        5.3192718329        2.2171649179
 C         -1.0585420572        6.0309354107        1.8132910711
 C          5.9560169476       -0.6877631514        2.0419476305
 C          5.4408457971        2.0839390996        1.2323147367
 C         -3.3455132629        0.1325391666       -0.6559266167
 C          2.3879192992       -3.2944128980       -0.6245513666
 C          0.9604096169        2.2620301723       -0.9397863440
 C         -4.3388996884       -0.0771714404       -2.8400009471
 C          2.3120082878       -4.9321950536       -2.3899306619
 C         -4.4370524637        2.0304031565       -1.6591783070
 C          4.3374060665       -3.6792944349       -1.9863819836
 C         -0.8452179682        1.8548288583       -2.4825940581
 C          1.1545407954        0.5078977387       -2.5820738992
 C         -3.2570219305       -2.0495350815       -1.8144075851
 C          0.2968009598       -4.5696998679       -1.0119329563
 C         -3.2569638366        2.3016931707        0.5028988658
 C          4.4460137653       -1.9679853245       -0.2159422098
 C         -1.0989749516        3.6613096819       -0.8474440874
 C          3.0481851585        0.9211386410       -1.0735931374
 C         -3.6559165129       -0.6468151457       -1.7670965115
 C          1.6822730238       -4.2544644087       -1.3445932660
 C         -3.7144102707        1.4722625405       -0.6013528271
 C          3.7111360773       -2.9997633055       -0.9394560596
 C         -0.3032507913        2.5853893973       -1.4235631658
 C          1.7031656837        1.2434343025       -1.5308350870
 C         -4.7331008584        1.2471015772       -2.7567302233
 C          3.6279348737       -4.6343834652       -2.6893816801
 C         -0.1191008438        0.8115864665       -3.0202394312
 C         -2.6741558782       -4.0737667309       -0.7778931610
 C         -1.6279195529       -4.2864771059        0.3434362614
 C         -2.9021446656        4.3258376115        1.5849536574
 C         -1.7779367950        5.1064414283        0.8352139567
 C          4.6029813837       -0.2877223686        1.4430096045
 C          4.7867052570        0.9211430938        0.4869387143
 Br        -5.6856138920        2.0249241207       -4.2290881098
 Br         4.4945747656       -5.5702697986       -4.1235493770
 Br        -0.8976107646       -0.2374364994       -4.4142707906
 N         -3.0442675024       -2.6909413669       -0.7503449621
 N         -0.2838267688       -3.9772595791       -0.0608622841
 N         -3.5632107372        3.5247264953        0.6075095150
 N          3.9301887108       -1.3643658601        0.7655783773
 N         -0.8644997752        4.1469648472        0.2958565074
 N          3.4899453648        1.3207255223        0.0371331496
 H         -5.1523495703       -5.5798010251        1.1232164243
 H         -4.2499712904       -4.0918992101        1.4043654234
 H         -2.9738384438       -5.5930959434        2.6722111052
 H         -3.3256925766       -6.9620466814        1.6219689913
 H         -2.7182718244        5.6674278571        3.9954915023
 H         -3.8610687245        6.9581797026        3.6097939345
 H         -1.5028886659        7.6494673318        3.1596356397
 H         -2.4734293184        7.6447579999        1.6840735635
 H          7.5473391807        0.1798092743        3.1996977946
 H          5.9371475925        0.7812470008        3.6106520255
 H          7.2086718587        2.5127569744        2.3794161831
 H          7.4698078719        1.3911714563        1.0415325121
 H         -4.7765675436       -4.4711343505       -1.0217305839
 H         -3.7767607614       -5.9251601020       -0.9738711305
 H         -0.9049108609       -5.8790868631        1.5942682812
 H         -1.6358648463       -6.4217269721        0.0860320406
 H         -4.6514772421        4.7602608772        2.7428801796
 H         -4.3528577634        5.8918032442        1.4208008690
 H         -0.5752815671        5.4185345113        2.5759882790
 H         -0.2792686921        6.5718517800        1.2731655399
 H          5.7987268603       -1.5288151354        2.7207908894
 H          6.6258095903       -1.0183954658        1.2447161859
 H          4.7557240600        2.4137565631        2.0142067991
 H          5.5801200656        2.9125621369        0.5349187977
 H         -2.7942797261       -0.3223087086        0.1518548549
 H          1.9020860825       -2.7691884186        0.1806197317
 H          1.3771690399        2.8167347298       -0.1159754393
 H         -4.5624795252       -0.6622171493       -3.7190053975
 H          1.7792988874       -5.6796652088       -2.9585601195
 H         -4.7314416756        3.0662308561       -1.6046964015
 H          5.3639242709       -3.4649937153       -2.2441934426
 H         -1.8260504025        2.0937554097       -2.8639801699
 H          1.7138322283       -0.2947220451       -3.0390540487
 H         -3.1687813124       -2.4973074400       -2.8152238397
 H         -0.1691744476       -5.3460831325       -1.6351870453
 H         -2.5856118042        1.8044136636        1.2174386555
 H          5.4527544079       -1.7600916351       -0.6069816920
 H         -1.9329245041        4.0138979510       -1.4720457752
 H          3.6425728703        0.2932687482       -1.7566664124
 H         -2.2445548837       -4.3487650265       -1.7580855919
 H         -1.8577368034       -3.5715683425        1.1417850690
 H         -2.4153337182        3.7096635345        2.3611498665
 H         -2.2714163161        5.6891132015        0.0393995665
 H          3.9243956476        0.0225954101        2.2461614300
 H          5.4273755022        0.5935887850       -0.3528132741
          96
       -142.74849514
 C         -2.2009167500       -6.7507832675        3.1290608317
 C         -0.9295989839       -6.6234002584        3.9605799388
 C         -4.0694797137        6.1860546256        3.1743894355
 C         -3.4016115201        7.0055321240        2.0748223372
 C          7.0795811542        4.7931128073        1.1630098184
 C          6.6324954624        5.4445603153       -0.1420451933
 C         -2.6943988446       -5.3724688097        2.7074628907
 C          0.1447859917       -5.8905470145        3.1671683325
 C         -4.5441569848        4.8453780452        2.6256580800
 C         -2.2350079272        6.2322505909        1.4708345972
 C          6.8150175218        3.2919135117        1.1289785373
 C          5.1557637314        5.1659306792       -0.3995913879
 C         -3.0004280832       -0.6389624332        1.0418388260
 C          2.5887396482       -0.8466894667        1.6358407669
 C          0.6902195277        2.8111598654       -0.8079821327
 C         -4.1821147707       -1.6371749340       -0.8047494557
 C          2.8945973143       -2.9181679673        0.4464639665
 C         -4.5550403482        0.6809540493       -0.2406879283
 C          4.3815098182       -1.0574294421        0.0418458884
 C         -0.9599733871        1.1918868724       -1.4857021887
 C          1.3866710731        0.7280785158       -1.8024643752
 C         -2.6628095570       -3.0456050726        0.5203313426
 C          1.1077988247       -2.7547878512        2.1503290559
 C         -3.2575466361        1.7675059772        1.5570259216
 C          4.0490996503        1.0960406465        1.2143102308
 C         -1.7278985284        3.2957270667       -0.4802674451
 C          3.1061878931        2.3671759880       -1.1853314983
 C         -3.2793048128       -1.7521830806        0.2517186390
 C          2.2005485325       -2.1608996644        1.3918160430
 C         -3.6215004563        0.5808085127        0.7949613416
 C          3.6762397447       -0.2890110896        0.9688582583
 C         -0.6418079623        2.4318321881       -0.9302499056
 C          1.7064630826        1.9763802736       -1.2660508782
 C         -4.8149038705       -0.4260243530       -1.0222689521
 C          3.9707785028       -2.3527318111       -0.2090473326
 C          0.0605462478        0.3505161505       -1.8832834505
 C         -1.6260684505       -4.6209986817        1.8993862332
 C         -0.3337561509       -4.5027114624        2.7288515115
 C         -3.3816860122        4.0516106410        2.0300575356
 C         -2.6972370812        4.8899777729        0.9098012471
 C          5.3345093450        3.0049528174        0.8906738197
 C          4.8840335297        3.6649849965       -0.4491101455
 Br        -6.0728019593       -0.2780802138       -2.4614652718
 Br         4.9237151602       -3.3923213158       -1.5045394973
 Br        -0.3805848984       -1.3790712658       -2.5698757082
 N         -2.1238206230       -3.3031142939        1.6321163313
 N          0.6919066823       -3.9221475893        1.9170796453
 N         -3.8674036510        2.8643812930        1.4079488308
 N          5.1108047769        1.6033402944        0.7505892218
 N         -1.5666913184        4.1495582887        0.4360189927
 N          3.4843432791        3.4182000339       -0.5922217407
 H         -1.9971009951       -7.3525609313        2.2407571247
 H         -2.9798395995       -7.2523100335        3.7063088697
 H         -1.1473769498       -6.0714474824        4.8777887183
 H         -0.5634575922       -7.6125806956        4.2406760548
 H         -3.3570251735        6.0153033213        3.9847659468
 H         -4.9210423474        6.7321656681        3.5839109313
 H         -3.0408135798        7.9521930571        2.4806074433
 H         -4.1318818978        7.2300240219        1.2940836912
 H          8.1441952134        4.9710489279        1.3242031197
 H          6.5331579310        5.2386061987        1.9975091879
 H          6.7974378632        6.5224329937       -0.0970888407
 H          7.2261004259        5.0471616666       -0.9685149842
 H         -2.9422509522       -4.7759712219        3.5879201191
 H         -3.5952103394       -5.4587049380        2.0954128075
 H          1.0502994134       -5.7745563112        3.7663684727
 H          0.4053940748       -6.4579368774        2.2721309006
 H         -5.0028100939        4.2500279249        3.4180939207
 H         -5.2912375543        4.9991598405        1.8453150720
 H         -1.4718615748        6.0441448755        2.2277445811
 H         -1.7737269956        6.8053812118        0.6644510649
 H          7.1120084198        2.8313121174        2.0735005557
 H          7.3916702681        2.8227315287        0.3302781017
 H          4.5428883879        5.6018068574        0.3909369348
 H          4.8444231185        5.6074093337       -1.3482764155
 H         -2.2888590373       -0.7446509613        1.8451801396
 H          2.0449073311       -0.2526667459        2.3562813135
 H          0.9406460818        3.7658702045       -0.3763315133
 H         -4.3913644328       -2.4858189261       -1.4378276931
 H          2.5773313928       -3.9303765733        0.2551244429
 H         -5.0438011163        1.6262336719       -0.4137018173
 H          5.2308134107       -0.6228001778       -0.4603244822
 H         -1.9904510108        0.8859847194       -1.5809309052
 H          2.1672033763        0.0657244386       -2.1448301906
 H         -2.7311952300       -3.7861580282       -0.2887188171
 H          0.6934386444       -2.1329733449        2.9577989846
 H         -2.4031211472        1.6560165589        2.2405408405
 H          3.3422040150        1.6774826270        1.8246090942
 H         -2.6956681645        3.1379430106       -0.9770814271
 H          3.8159500972        1.6860294269       -1.6766679266
 H         -1.4097366332       -5.1745137812        0.9705469254
 H         -0.5608994368       -3.8755023329        3.6091882472
 H         -2.6212948784        3.8353389644        2.8015956841
 H         -3.4490635352        5.0353392218        0.1168401040
 H          4.7176491228        3.4422405840        1.6952360723
 H          5.4684804483        3.1880759824       -1.2540135908
