16
QAQOLRCTTDVBAK-UHFFFAOYSA-N
 C         -2.2612836276       -0.4698128744       -0.0008196425
 C         -0.4559478027        1.1357719957       -0.0006639857
 C          0.0342245888       -1.2233554575       -0.0005706790
 C         -2.7917458427        1.9604358613       -0.0011541772
 C         -1.7796804586       -2.9102456961       -0.0002040948
 C         -1.8239080429        0.8520908809       -0.0008088220
 C         -1.3335260898       -1.5080779282       -0.0004837681
 C          0.4545560854        0.0944606093       -0.0009692058
 Br         2.3259407756        0.4832425966        0.0010999142
 O         -2.5007762251        3.1327721190        0.0001605110
 O         -1.0457573371       -3.8696172588       -0.0011381946
 H         -3.3182983606       -0.6894329875       -0.0014012254
 H         -0.1346626240        2.1667787234       -0.0003618157
 H          0.7395932652       -2.0410713951       -0.0004276677
 H         -3.8477421714        1.6381735857       -0.0022124057
 H         -2.8766299175       -3.0353457735        0.0003449031