16
QAQOLRCTTDVBAK-UHFFFAOYSA-N
 C         -2.0172804531       -0.4125844897       -0.0012472476
 C         -0.2124747298        1.1893725185       -0.0009037549
 C          0.2715458383       -1.1772989887       -0.0004561279
 C         -2.5537236085        2.0135141769       -0.0015650650
 C         -1.5581291922       -2.8545159988       -0.0007218267
 C         -1.5799443316        0.9097343439       -0.0013071693
 C         -1.0958966287       -1.4569914063       -0.0008535601
 C          0.6916050526        0.1414436440       -0.0004599703
 Br         2.5664253576        0.5248940557        0.0011756598
 O         -3.7533946317        1.8760360327        0.0007363372
 O         -2.7154248992       -3.1990375888       -0.0005334795
 H         -3.0755693445       -0.6289935656       -0.0014859714
 H          0.1342825982        2.2115669866       -0.0008262401
 H          0.9918409994       -1.9812920118       -0.0002917994
 H         -2.0984439665        3.0197639446       -0.0041545405
 H         -0.7444970910       -3.6011708982       -0.0001133597