  64

 C         -6.0165358374       -2.4898334138       -2.1666942448
 C         -6.5833524386       -1.5543661474       -1.1047116760
 C          6.6125994029        1.5835055068        0.7353836035
 C          6.1418415889        2.5604491869        1.8073087724
 C         -4.6796896352       -3.0571224448       -1.7062941207
 C         -5.6048628490       -0.4183472379       -0.8259959276
 C          5.6353510025        0.4183050553        0.6276916450
 C          4.7454534396        3.0735300170        1.4775212708
 C          0.9769756491       -1.6878896225       -0.3238066198
 C         -0.9784100248        1.6032777920        0.4985792586
 C         -0.1355650035       -3.7633614993        0.1773505228
 C         -2.2907552423        3.4705668239       -0.2724033742
 C          2.1711142304       -3.4360048768        0.8239564505
 C          0.0343086140        3.7806181360        0.3056845797
 C         -1.3768915664       -1.9642548910       -0.9938192277
 C         -3.3382174391        1.2418207551       -0.1957858694
 C          3.3087681940       -1.2814788945        0.4038131219
 C          1.4045937454        1.8808608647        1.0981818369
 C         -0.1617451003       -2.4820540579       -0.3791001891
 C         -2.1877059096        2.1125272131        0.0269506543
 C          2.1410416254       -2.1497817405        0.2877890697
 C          0.1341920647        2.4258519589        0.6315745836
 C          1.0301408258       -4.2168854862        0.7595222914
 C         -1.1774850289        4.2786455613       -0.1261936108
 C         -3.6736158226       -1.9489935375       -1.3965841747
 C         -4.2569132790       -0.9613318361       -0.3451838553
 C          4.2379631002        0.9186369884        0.2537919566
 C          3.7378314950        1.9334362201        1.3220147904
 Br         1.0749014194       -5.9801493475        1.5122749182
 Br        -1.3272899231        6.1438358314       -0.5430469463
 N         -2.4898039682       -2.5422792190       -0.8513998085
 N         -3.2273260529       -0.0084333077       -0.0670432718
 N          3.2099785336       -0.0608343862        0.0987337881
 N          2.4878238078        2.4983715410        0.9031774850
 H         -6.7142132282       -3.3069601721       -2.3577317235
 H         -5.8787903670       -1.9402941282       -3.1013292947
 H         -7.5362634692       -1.1395017247       -1.4399837055
 H         -6.7642263308       -2.1137921122       -0.1844322418
 H          7.6069415124        1.2055785126        0.9821577306
 H          6.6760956429        2.0969967404       -0.2264355189
 H          6.1277354268        2.0572606943        2.7773705650
 H          6.8326193898        3.4024536160        1.8767466451
 H         -4.8154611137       -3.6529678069       -0.8024879476
 H         -4.2555943691       -3.7056309839       -2.4753989939
 H         -5.4530922529        0.1592277897       -1.7422277486
 H         -6.0160269275        0.2463715095       -0.0618475592
 H          5.9741899067       -0.2900502324       -0.1330057104
 H          5.5913533458       -0.1008725646        1.5888451222
 H          4.3911125975        3.7433675594        2.2632619694
 H          4.7634846723        3.6349998768        0.5421502476
 H          0.9798953219       -0.6918881028       -0.7384743091
 H         -0.9238117395        0.5526469445        0.7377727257
 H         -1.0261738264       -4.3690064086        0.1370771255
 H         -3.2243235329        3.8849215990       -0.6224574580
 H          3.0669545720       -3.8139195003        1.2934120688
 H          0.9055823495        4.4074741399        0.4046186472
 H         -1.2595514875       -1.0337962600       -1.5650749630
 H         -4.2584921427        1.7553954372       -0.4963372597
 H          4.2186842523       -1.7592006971        0.7839955569
 H          1.3490856261        0.9091920017        1.6054730038
 H         -3.4519337877       -1.3603280801       -2.3050024774
 H         -4.3917341807       -1.5308122988        0.5841058485
 H          4.2773296290        1.4555394318       -0.7034301903
 H          3.6299068924        1.3767627144        2.2693991623
          64
        -95.16418115
 C         -7.2076576433       -0.3674235118       -0.7154259809
 C         -7.2153868969        0.4053130871        0.5994634114
 C          7.2075717521       -0.3668430549       -0.7153979356
 C          7.2150919597        0.4052947900        0.5998412041
 C         -5.9619195330       -1.2405589235       -0.8101181429
 C         -5.9572557870        1.2569366917        0.7224693143
 C          5.9618841457       -1.2399857043       -0.8106323146
 C          5.9569241678        1.2568363419        0.7230316631
 C         -0.0000688046       -0.9529449263       -1.2833573037
 C         -0.0001812072        0.9143704789        1.2525136485
 C         -1.2086350230       -2.8698329545       -0.4665488990
 C         -1.2084173870        2.8559141684        0.4946771189
 C          1.2087845601       -2.8697571114       -0.4668449024
 C          1.2083185089        2.8557735639        0.4947304053
 C         -2.4554384584       -0.8457649230       -1.1727461729
 C         -2.4591994811        0.8159870803        1.1379535390
 C          2.4553247258       -0.8455363469       -1.1730293095
 C          2.4588475676        0.8157140473        1.1379455875
 C         -1.2101934094       -1.5792717842       -0.9970815535
 C         -1.2102045511        1.5493079380        0.9843296926
 C          1.2101596318       -1.5791749809       -0.9973220538
 C          1.2099232978        1.5491580045        0.9843613133
 C          0.0001249676       -3.4956760133       -0.2274609170
 C         -0.0000054516        3.4896008683        0.2764189748
 C         -4.6909353014       -0.4013464021       -0.7028693211
 C         -4.6969718572        0.3986235728        0.6395070149
 C          4.6907962280       -0.4009712138       -0.7030837612
 C          4.6966891663        0.3985007699        0.6395942660
 Br         0.0002928032       -5.2705570392        0.4898211788
 Br         0.0001079339        5.2881382030       -0.3785425913
 N         -3.5445698901       -1.2493785983       -0.6717283654
 N         -3.5399461747        1.2329989552        0.6297373460
 N          3.5445319909       -1.2491504987       -0.6721700771
 N          3.5396538376        1.2328470289        0.6299591838
 H         -8.0977180898       -0.9948685018       -0.7864920325
 H         -7.2231413048        0.3357956692       -1.5512555754
 H         -8.0956282773        1.0483693324        0.6507552368
 H         -7.2619701510       -0.2974904961        1.4344338681
 H          8.0976643255       -0.9942296419       -0.7866299989
 H          7.2231443206        0.3367584669       -1.5509060633
 H          7.2615544843       -0.2978906074        1.4344961603
 H          8.0953202803        1.0483305410        0.6515573543
 H         -5.9552907410       -1.9792876719       -0.0070282440
 H         -5.9439092946       -1.7769319631       -1.7610212086
 H         -5.9215005703        1.9970076571       -0.0786748428
 H         -5.9507189444        1.7913357337        1.6745917947
 H          5.9440119949       -1.7758894301       -1.7618030392
 H          5.9552283649       -1.9791188286       -0.0079129172
 H          5.9502340325        1.7908626295        1.6753624147
 H          5.9212298649        1.9972149290       -0.0778304445
 H         -0.0001563605        0.0454472423       -1.6960975216
 H         -0.0002414759       -0.0956318033        1.6359608022
 H         -2.1500368636       -3.3476469015       -0.2481737781
 H         -2.1499832776        3.3402963406        0.2921798555
 H          2.1502645753       -3.3475242809       -0.2487189070
 H          2.1499718161        3.3400065205        0.2922663393
 H         -2.3782445002        0.0997085403       -1.7290389146
 H         -2.3923604877       -0.1360262304        1.6840532215
 H          2.3780015346        0.1000270480       -1.7291508136
 H          2.3918992678       -0.1364534281        1.6837597570
 H         -4.6372746618        0.3380628943       -1.5201926224
 H         -4.6683255415       -0.3411928208        1.4574355890
 H          4.6370222317        0.3387395440       -1.5201272952
 H          4.6679657612       -0.3415993768        1.4572631863
