  64

 C         -6.0165358374       -2.4898334138       -2.1666942448
 C         -6.5833524386       -1.5543661474       -1.1047116760
 C          6.6125994029        1.5835055068        0.7353836035
 C          6.1418415889        2.5604491869        1.8073087724
 C         -4.6796896352       -3.0571224448       -1.7062941207
 C         -5.6048628490       -0.4183472379       -0.8259959276
 C          5.6353510025        0.4183050553        0.6276916450
 C          4.7454534396        3.0735300170        1.4775212708
 C          0.9769756491       -1.6878896225       -0.3238066198
 C         -0.9784100248        1.6032777920        0.4985792586
 C         -0.1355650035       -3.7633614993        0.1773505228
 C         -2.2907552423        3.4705668239       -0.2724033742
 C          2.1711142304       -3.4360048768        0.8239564505
 C          0.0343086140        3.7806181360        0.3056845797
 C         -1.3768915664       -1.9642548910       -0.9938192277
 C         -3.3382174391        1.2418207551       -0.1957858694
 C          3.3087681940       -1.2814788945        0.4038131219
 C          1.4045937454        1.8808608647        1.0981818369
 C         -0.1617451003       -2.4820540579       -0.3791001891
 C         -2.1877059096        2.1125272131        0.0269506543
 C          2.1410416254       -2.1497817405        0.2877890697
 C          0.1341920647        2.4258519589        0.6315745836
 C          1.0301408258       -4.2168854862        0.7595222914
 C         -1.1774850289        4.2786455613       -0.1261936108
 C         -3.6736158226       -1.9489935375       -1.3965841747
 C         -4.2569132790       -0.9613318361       -0.3451838553
 C          4.2379631002        0.9186369884        0.2537919566
 C          3.7378314950        1.9334362201        1.3220147904
 Br         1.0749014194       -5.9801493475        1.5122749182
 Br        -1.3272899231        6.1438358314       -0.5430469463
 N         -2.4898039682       -2.5422792190       -0.8513998085
 N         -3.2273260529       -0.0084333077       -0.0670432718
 N          3.2099785336       -0.0608343862        0.0987337881
 N          2.4878238078        2.4983715410        0.9031774850
 H         -6.7142132282       -3.3069601721       -2.3577317235
 H         -5.8787903670       -1.9402941282       -3.1013292947
 H         -7.5362634692       -1.1395017247       -1.4399837055
 H         -6.7642263308       -2.1137921122       -0.1844322418
 H          7.6069415124        1.2055785126        0.9821577306
 H          6.6760956429        2.0969967404       -0.2264355189
 H          6.1277354268        2.0572606943        2.7773705650
 H          6.8326193898        3.4024536160        1.8767466451
 H         -4.8154611137       -3.6529678069       -0.8024879476
 H         -4.2555943691       -3.7056309839       -2.4753989939
 H         -5.4530922529        0.1592277897       -1.7422277486
 H         -6.0160269275        0.2463715095       -0.0618475592
 H          5.9741899067       -0.2900502324       -0.1330057104
 H          5.5913533458       -0.1008725646        1.5888451222
 H          4.3911125975        3.7433675594        2.2632619694
 H          4.7634846723        3.6349998768        0.5421502476
 H          0.9798953219       -0.6918881028       -0.7384743091
 H         -0.9238117395        0.5526469445        0.7377727257
 H         -1.0261738264       -4.3690064086        0.1370771255
 H         -3.2243235329        3.8849215990       -0.6224574580
 H          3.0669545720       -3.8139195003        1.2934120688
 H          0.9055823495        4.4074741399        0.4046186472
 H         -1.2595514875       -1.0337962600       -1.5650749630
 H         -4.2584921427        1.7553954372       -0.4963372597
 H          4.2186842523       -1.7592006971        0.7839955569
 H          1.3490856261        0.9091920017        1.6054730038
 H         -3.4519337877       -1.3603280801       -2.3050024774
 H         -4.3917341807       -1.5308122988        0.5841058485
 H          4.2773296290        1.4555394318       -0.7034301903
 H          3.6299068924        1.3767627144        2.2693991623
