  128

 C         -4.1210403598       -2.3858689451        3.2924063989
 C         -2.6717540291       -2.8419522797        3.4001375077
 C         -3.3795497960        9.8418210796       -1.1103654687
 C         -2.0736229152        9.6329789304       -1.8862949509
 C         -2.0066104007       -9.5074617691       -2.2125396041
 C         -0.8272948388      -10.0970525431       -1.4448257041
 C          4.0530928639        0.9207688137        3.0112556130
 C          5.3963782774        0.4600581213        2.4167489615
 C         -4.3583367703       -1.7698187748        1.9203137490
 C         -1.7488583532       -1.6399706577        3.2536393259
 C         -3.8449168518        8.5485039532       -0.4321110622
 C         -2.0079476563        8.2182853070       -2.4477349514
 C         -2.0813373990       -7.9988792782       -2.0030519519
 C          0.4767506525       -9.4311604575       -1.8710899897
 C          2.8673042061        0.1771396974        2.4031100814
 C          5.2282894364       -0.7250372055        1.4721342005
 C         -3.5688555507        4.1188855557        2.0032082234
 C         -0.4504204068       -3.1477832703       -1.4784068399
 C          1.6152342032        4.0913753188       -0.3322862327
 C          3.2994701956       -4.1523369332       -1.4820233883
 C         -4.1376192685        2.9695213180        4.0397567303
 C          0.7651439693       -1.1245114539       -1.9750442433
 C         -3.7795790221        5.3651463237        4.0476379427
 C          0.9673163900       -3.0398068465       -3.4256002047
 C          2.1862210151        6.4139488102       -0.6243892998
 C          3.7200541785       -5.7253762908       -3.2568249078
 C          3.9061903649        4.7984855501       -0.1137403600
 C          4.8962726863       -3.6134641405       -3.2016261844
 C         -3.7591157028        1.6871750586        1.9331512061
 C         -0.6631545164       -1.1604908612        0.0090774804
 C         -3.1043793025        6.5357731323        1.9618150453
 C         -0.1589208185       -5.1526072949       -2.9259153139
 C         -0.1676411255        5.7131702690       -0.8920683827
 C          1.9900882360       -6.2287552589       -1.5489613074
 C          3.3793926377        2.4262681813        0.2465706511
 C          4.4821082935       -1.9775394832       -1.4010249810
 C         -3.8570209916        2.9351688308        2.6722012470
 C         -0.1204313885       -1.8338365933       -1.1601738958
 C         -3.5053291167        5.3327523410        2.6817797547
 C          0.0889007375       -3.7549589575       -2.6087043133
 C          1.2266050012        5.3985036986       -0.6056392050
 C          3.0368817574       -5.3752573107       -2.0899146691
 C          2.9511555659        3.7823223458       -0.0813305473
 C          4.2221133833       -3.2648922817       -2.0320458245
 C         -4.1092041750        4.1853133513        4.6940837919
 C          1.2953724002       -1.7420289184       -3.0889334226
 C          3.5056575621        6.0954365387       -0.3800910763
 C          4.6368826825       -4.8402550882       -3.7875928143
 C         -3.4358571627       -0.5820172674        1.6503711401
 C         -1.9422353221       -0.9200405309        1.9171811469
 C         -2.6392464603        7.6887319580       -0.0364491167
 C         -1.9417692250        7.1760551762       -1.3184573690
 C         -0.7871003160       -7.3255594551       -2.4487318038
 C          0.4154434854       -7.9237133492       -1.6437923068
 C          2.9085900759        0.1775553713        0.8646871919
 C          4.2406600402       -0.4165141008        0.3357275885
 Br        -4.5091014919        4.2428040402        6.5676774716
 Br         2.5332790456       -0.7789237432       -4.1820841491
 Br         4.8258709670        7.4847791375       -0.4106506708
 Br         5.5646572615       -5.3123767608       -5.3964927067
 N         -3.7461025802        0.5472372550        2.4750505906
 N         -1.4561442681       -1.7060373985        0.8257716868
 N         -3.0654321627        6.5377940383        0.6999389698
 N         -0.8104542795       -5.9280546854       -2.1664648461
 N         -0.5696719406        6.9031330541       -1.0112842190
 N          1.5951018953       -7.2837853705       -2.1281514796
 N          2.5471185594        1.4898465293        0.4093519300
 N          3.9341823112       -1.6596103991       -0.3092425337
 H         -4.7976917183       -3.2307344038        3.4324680986
 H         -4.3314387308       -1.6442089557        4.0645274052
 H         -2.4535111513       -3.5638256331        2.6117296999
 H         -2.4943604759       -3.3194034459        4.3656194865
 H         -3.2312664562       10.6201768761       -0.3597790185
 H         -4.1644396139       10.1830607267       -1.7874027426
 H         -2.0049658638       10.3584847811       -2.6980678200
 H         -1.2145531997        9.7860552197       -1.2317811132
 H         -1.8890828959       -9.7198329044       -3.2777376749
 H         -2.9375945442       -9.9686825199       -1.8785094155
 H         -0.7639129492      -11.1714634820       -1.6256750283
 H         -0.9784068112       -9.9439978855       -0.3738233726
 H          3.9222123997        1.9929474908        2.8478283928
 H          4.0407377756        0.7580558189        4.0898962933
 H          6.0841238189        0.1735810354        3.2136348164
 H          5.8667253020        1.2805667991        1.8700218814
 H         -4.1657756562       -2.5163828227        1.1478006674
 H         -5.3928165110       -1.4322888473        1.8255309672
 H         -1.9581049623       -0.9206356726        4.0473628575
 H         -0.7040254323       -1.9482606400        3.3312869499
 H         -4.4753788509        7.9607498386       -1.1007821335
 H         -4.4317691327        8.7753721805        0.4602746395
 H         -1.1225867911        8.1021734811       -3.0751344114
 H         -2.8869082364        8.0271366957       -3.0643991478
 H         -2.2483273111       -7.7683049636       -0.9499092143
 H         -2.9089997397       -7.5761631914       -2.5760713972
 H          0.6702223597       -9.6164739587       -2.9288816973
 H          1.3146337052       -9.8357821902       -1.2997275655
 H          1.9371340170        0.6478184184        2.7266166490
 H          2.8557047864       -0.8592905218        2.7379047827
 H          4.8652653347       -1.5976650705        2.0163189743
 H          6.1927986575       -0.9903957916        1.0322110100
 H         -3.3568565889        4.1195841320        0.9458797154
 H         -1.1230650489       -3.7003788627       -0.8438892500
 H          0.8893045230        3.2943775589       -0.3027063709
 H          2.7811032750       -3.8593024772       -0.5826565960
 H         -4.3620949767        2.0511667272        4.5576100708
 H          1.0369768627       -0.1083867071       -1.7316290673
 H         -3.7396830468        6.2958799235        4.5929262605
 H          1.3949087182       -3.5031763223       -4.3018491863
 H          1.8731904477        7.4236906459       -0.8347872549
 H          3.5105412832       -6.6747705281       -3.7228642161
 H          4.9465837581        4.5781764912        0.0731877852
 H          5.6053187433       -2.9324799397       -3.6475646382
 H         -3.6163840951        1.8084943508        0.8469278991
 H         -0.3298930010       -0.1186854370        0.1407986847
 H         -2.8237840744        7.4046816284        2.5734502247
 H          0.2987392154       -5.5089816486       -3.8610677998
 H         -0.8392998607        4.8504107767       -1.0089785006
 H          1.5324608298       -5.8703699690       -0.6160616902
 H          4.4639818252        2.3080679830        0.3526478954
 H          5.1791546020       -1.3123925166       -1.9312350857
 H         -3.5124702238       -0.3106753243        0.5772662258
 H         -1.4040552769        0.0501156386        1.9606733684
 H         -1.9392396629        8.3047630664        0.5498578138
 H         -2.4716628625        6.2555607273       -1.6204856098
 H         -0.5903539928       -7.5266210523       -3.5161131251
 H          0.2332515332       -7.6962837923       -0.5797265162
 H          2.1053296171       -0.4840454055        0.5158634659
 H          4.7126369821        0.2901927402       -0.3705896505
         128
       -190.32658557
 C         -5.4049583337       -6.2682433705       -2.6197655881
 C         -6.3167387441       -6.2254823863       -1.3978784573
 C          3.0652036281        5.3852651032       -1.3716425856
 C          4.2800343254        4.6924796750       -2.0050665439
 C         -5.3803878157        6.1590728281        1.9453765080
 C         -4.4597895314        6.5186186003        0.7834464349
 C          0.9245945025       -6.3449844849       -0.0855854820
 C         -0.4907051077       -5.7778070054       -0.1452289928
 C         -5.0117971202       -4.8558961109       -3.0368499856
 C         -5.6270790595       -5.5025118109       -0.2468139057
 C          1.7521051494        4.7289882252       -1.8034550151
 C          3.8757610421        3.9869080438       -3.2959724693
 C         -5.4969050990        4.6453697617        2.0842490673
 C         -3.0836390836        5.8926245180        0.9793584010
 C          1.9234205229       -5.3712597879       -0.7021356765
 C         -0.5586272425       -4.4139888683        0.5343812095
 C         -1.3779587944       -0.3354050614       -1.9848691492
 C         -4.0882740710       -0.2216413609        1.9443185840
 C          4.3884054539       -0.8649661069       -1.3680680752
 C         -0.3245826969        0.5660023467        1.1648565736
 C         -3.5583374173       -0.0433604053       -2.9747406925
 C         -2.9093122102       -2.2624476827        2.4369446063
 C         -1.9834691265        1.7892299341       -2.9461936830
 C         -2.2955477974       -0.2099856612        3.5535873540
 C          6.6302447143       -0.0485820794       -1.6848882987
 C          0.5844274989        2.6029446923        2.0765855356
 C          6.2591372527       -2.1582752718       -0.5697722012
 C          1.8485060388        0.5471156476        2.1983869498
 C         -2.9406541658       -2.2362280549       -1.9969620795
 C         -4.7004389101       -2.2741079679        0.7265045331
 C          0.2469581522        1.5265508598       -1.9112787539
 C         -3.4145644890        1.9122659103        3.0042787176
 C          4.7540667895        1.3647787589       -2.4161409919
 C         -1.6577056448        2.6283319318        1.0223126536
 C          3.9713798549       -2.9934212189       -0.1751563397
 C          1.0170800603       -1.5316853491        1.1848640313
 C         -2.6248806727       -0.8545239098       -2.3275230604
 C         -3.9009168559       -1.5814409215        1.7267997771
 C         -1.0503635821        0.9825472306       -2.2920204933
 C         -3.2925577377        0.4702898616        2.8551902331
 C          5.2524134327        0.1238916840       -1.8293948870
 C         -0.4471638442        1.9272485598        1.4222811097
 C          4.8821659985       -1.9988224260       -0.7298137998
 C          0.8220759986       -0.1300805370        1.5405340497
 C         -3.2192042335        1.2630885575       -3.2685379954
 C         -2.1223285672       -1.5629649695        3.3265197267
 C          7.1084190717       -1.1890525185       -1.0680633284
 C          1.7121257831        1.9005320570        2.4505462396
 C         -4.3098590680       -4.1206579952       -1.8953188182
 C         -5.2305540725       -4.0816474754       -0.6474658572
 C          1.8816243413        3.2100012041       -1.9092397340
 C          2.9367618305        2.8128260498       -2.9899868090
 C         -4.1273589371        4.0082390252        2.3008901749
 C         -3.1846354883        4.3753174753        1.1049229289
 C          1.8724146538       -4.0225879690        0.0286577609
 C          0.4491325960       -3.4506044486       -0.1040045933
 Br        -4.5065673685        2.3852067175       -4.1355571064
 Br        -0.7242953018       -2.4801468921        4.2481475099
 Br         9.0023241481       -1.4223535840       -0.8773872832
 Br         3.1428476459        2.8276580397        3.3225607502
 N         -4.0480869939       -2.7698485608       -2.2894817703
 N         -4.4826406395       -3.4775621202        0.4111230610
 N          0.6080066229        2.6760954556       -2.2865923845
 N         -4.2239287560        2.5882939733        2.3029469889
 N          3.5168441810        1.5903357472       -2.5162699979
 N         -1.9078535095        3.8116320125        1.3963520174
 N          2.7796711496       -3.0887291738       -0.5762451885
 N          0.2349064851       -2.1185053456        0.3867505633
 H         -4.5057240464       -6.8415632521       -2.3830295153
 H         -5.9127145386       -6.7643384317       -3.4487298899
 H         -6.5754870286       -7.2393404806       -1.0874154765
 H         -7.2424565356       -5.7044810997       -1.6525025461
 H          3.1551038611        5.3488768698       -0.2845527094
 H          3.0396491565        6.4364932556       -1.6627301321
 H          5.0662547307        5.4223519996       -2.2054079494
 H          4.6864187343        3.9541182143       -1.3096969504
 H         -4.9797906811        6.5787459244        2.8711357121
 H         -6.3712896594        6.5863844716        1.7830657685
 H         -4.3587652040        7.6025926401        0.7084762386
 H         -4.8935858022        6.1547979110       -0.1506506430
 H          0.9676061896       -7.2956235268       -0.6203431626
 H          1.1972384741       -6.5324470164        0.9558052793
 H         -1.1838688874       -6.4630006297        0.3457825601
 H         -0.7953708043       -5.6775637368       -1.1897328899
 H         -4.3406761717       -4.8846103423       -3.8977966169
 H         -5.8974010178       -4.2851018612       -3.3209283990
 H         -6.2886228248       -5.4483465668        0.6203509900
 H         -4.7258396959       -6.0405690157        0.0506492878
 H          1.4288645585        5.1054017433       -2.7741336134
 H          0.9636242084        4.9619370339       -1.0862925757
 H          4.7509801694        3.6241347323       -3.8381114224
 H          3.3628002244        4.6885950122       -3.9531908573
 H         -5.9391975252        4.2153946420        1.1842008538
 H         -6.1372691775        4.3887157655        2.9306957491
 H         -2.6132118849        6.2840314673        1.8829271059
 H         -2.4358108251        6.1274376005        0.1326755196
 H          1.6959417272       -5.2088576672       -1.7577686882
 H          2.9375479176       -5.7726865428       -0.6349609036
 H         -0.3249879275       -4.5105853380        1.5975249576
 H         -1.5617000580       -3.9938122908        0.4417880974
 H         -0.6629424504       -0.9583883298       -1.4662323668
 H         -4.8412005623        0.3295408268        1.4029456379
 H          3.3251625964       -0.7403238345       -1.4889063942
 H         -1.1162367283        0.0314784114        0.6648703456
 H         -4.5220956669       -0.4534552423       -3.2304361118
 H         -2.7774259695       -3.3183244013        2.2701980829
 H         -1.7198356607        2.8089516682       -3.1765295291
 H         -1.6632274048        0.3168100648        4.2525694819
 H          7.3161118045        0.7049635237       -2.0417966554
 H          0.4804771978        3.6584185877        2.2697996813
 H          6.6556482075       -3.0310415517       -0.0733021885
 H          2.7461607378        0.0238708535        2.4921305057
 H         -2.1451543229       -2.7845161145       -1.4767326437
 H         -5.4883367950       -1.6749416363        0.2490493542
 H          0.8745845663        0.8828452396       -1.2820728456
 H         -2.7348874564        2.3808937137        3.7310358397
 H          5.5391744322        2.0636199639       -2.7258010627
 H         -2.3390187521        2.0571600278        0.3757116849
 H          4.3826219794       -3.6256080258        0.6274347679
 H          1.9154439341       -1.9869148300        1.6125947800
 H         -3.3849572652       -4.6481689861       -1.6048183113
 H         -6.1236366903       -3.4883430989       -0.9098049874
 H          2.2225365485        2.7893860021       -0.9472106068
 H          2.3837276224        2.5422610780       -3.8998917336
 H         -3.6531779000        4.3957511225        3.2191959997
 H         -3.6320305528        3.9343279188        0.1984966883
 H          2.1214990003       -4.2035575187        1.0890913369
 H          0.2305612388       -3.3807609913       -1.1791118309
         128
       -190.33988780
 C          2.9866574423        6.2948125455        2.4500767043
 C          2.3479595867        6.1812337133        3.8293143357
 C          0.4625921732       -6.2874250793       -2.3828272566
 C          0.4948374072       -5.8932831140       -3.8559222478
 C         -0.4306095716       -6.6633918490        4.4342366916
 C          0.1729149612       -6.9613501168        3.0650665691
 C         -4.2641859147        6.1034790054       -2.8031237032
 C         -4.8887416367        5.7242044203       -1.4648184936
 C          3.4361358423        4.9176962246        1.9765129060
 C          1.1565861366        5.2342290279        3.7758553083
 C          1.5098201088       -5.5032134110       -1.6014609614
 C          0.2708422208       -4.3934033061       -4.0113657720
 C         -0.4781367749       -5.1597285349        4.6831567408
 C         -0.6159927324       -6.2550220145        1.9682870623
 C         -2.8465621523        5.5523796893       -2.8958521398
 C         -4.8991626676        4.2100313250       -1.2989734662
 C          2.9037712726       -0.0178708044        0.3848569045
 C         -1.0621861839       -0.1962819889        3.5682988533
 C          0.4458930055        0.5773670656       -3.2399059864
 C         -1.9626037322       -0.7263474839        0.0173917761
 C          5.2472189311        0.3270602654        0.8185292152
 C         -2.1787646173        1.8490775197        2.9590683013
 C          4.4796093429       -1.7905433310       -0.0486484096
 C         -3.4001739070       -0.2324560066        2.9821724734
 C          2.7833356333        0.9052493981       -2.7585165805
 C         -3.1107807009       -2.7373319369       -0.6513003551
 C          1.2483040918        2.7673676246       -2.6373712514
 C         -3.8704767964       -0.5866875702       -1.4445794552
 C          3.6948137209        2.1744600948        1.2727798609
 C          0.2267463211        1.9175086790        3.5164696591
 C          2.0957852407       -2.1407849288       -0.5884086783
 C         -2.2704943120       -2.3601898982        3.4586231311
 C          1.9803225586       -1.3679511046       -3.2514061485
 C         -1.2107605501       -2.8914632987        0.9267359382
 C         -1.1585465633        2.4450987639       -3.1288558576
 C         -2.7593381652        1.4984643213       -0.7209588202
 C          3.9377061770        0.8075133211        0.8228220199
 C         -1.0188766166        1.1761174631        3.3531916737
 C          3.1675499678       -1.3096731787       -0.0592337204
 C         -2.2441566063       -0.9091761667        3.3695010232
 C          1.7313406948        0.0582638684       -3.1044424670
 C         -2.0921915352       -2.1126709065        0.0685604161
 C          0.1973060742        1.9247999962       -3.0084287970
 C         -2.8558922964        0.0436690702       -0.7217416832
 C          5.4936728554       -0.9657497464        0.3919176122
 C         -3.3477747021        1.1363155384        2.7912425362
 C          2.5190423646        2.2426654828       -2.5257991537
 C         -3.9729404550       -1.9633000769       -1.4040690609
 C          2.2474156008        3.9579453122        1.8802818823
 C          1.5427134708        3.8440156289        3.2577769439
 C          1.2782191965       -4.0001761606       -1.7302054576
 C          1.3199126554       -3.5966389197       -3.2404037022
 C         -1.2844570889       -4.4537673754        3.5964861621
 C         -0.6416041475       -4.7474586575        2.2012775711
 C         -2.8250906604        4.0335080117       -2.7323361356
 C         -3.4880126488        3.6266595609       -1.3856500403
 Br         7.2938917371       -1.6194470795        0.3985248139
 Br        -4.9370071523        2.0562772784        2.2666194223
 Br         3.9620398419        3.3868582929       -2.0318384886
 Br        -5.3586334762       -2.8235584688       -2.4020025613
 N          2.5242559809        2.6240231102        1.4245328243
 N          0.3322714086        3.1021263044        3.0988558384
 N          2.3235210038       -3.2864958981       -1.0764391064
 N         -1.2484418717       -3.0401370618        3.7689012524
 N          1.0299872089       -2.2030157225       -3.2996812212
 N         -1.4452445653       -4.1020716227        1.2136148127
 N         -1.4679231485        3.5868867472       -2.6862369666
 N         -3.5823962835        2.2037920350       -1.3683284287
 H          2.2657986458        6.7099930633        1.7430828204
 H          3.8473195030        6.9652016121        2.4874993054
 H          2.0152924934        7.1616644458        4.1741819882
 H          3.0849216078        5.8060740551        4.5437104021
 H         -0.5273974033       -6.0787508016       -1.9713348006
 H          0.6543901424       -7.3566211694       -2.2776603048
 H          1.4635345787       -6.1618928056       -4.2835871661
 H         -0.2776565430       -6.4341648976       -4.4048260749
 H         -1.4433763907       -7.0700638204        4.4813438516
 H          0.1611721501       -7.1426274827        5.2159291966
 H          0.1686987273       -8.0370253335        2.8816457516
 H          1.2104170025       -6.6194795793        3.0424424400
 H         -4.2403210683        7.1889942914       -2.9133678105
 H         -4.8685206317        5.6949818976       -3.6161931204
 H         -5.9111231415        6.1008221133       -1.4061773497
 H         -4.3156529872        6.1761818786       -0.6524173344
 H          3.9120444827        4.9908834605        0.9956254971
 H          4.1661647402        4.5241958467        2.6887502881
 H          0.7143178384        5.1209705211        4.7680875003
 H          0.3910007079        5.6363432053        3.1105471837
 H          2.5103732870       -5.7308126189       -1.9730316054
 H          1.4771481499       -5.7683324949       -0.5431728722
 H         -0.7157551058       -4.1164798840       -3.6362860406
 H          0.3231534688       -4.1078708568       -5.0639457394
 H          0.5306926151       -4.7435900457        4.6924217481
 H         -0.9385702439       -4.9486633892        5.6505515713
 H         -1.6444557914       -6.6188558002        1.9454547545
 H         -0.1697309479       -6.4507375298        0.9920797042
 H         -2.2219047603        5.9879288369       -2.1142380505
 H         -2.4015378875        5.8029084740       -3.8610173168
 H         -5.5052177480        3.7496826117       -2.0808757128
 H         -5.3289459545        3.9333829562       -0.3345524793
 H          1.8988512744        0.3751213860        0.3825899541
 H         -0.1799608172       -0.7397974315        3.8694971484
 H         -0.3519874724       -0.0951274928       -3.5136076209
 H         -1.1768438499       -0.2402314371        0.5786571565
 H          6.0598691248        0.9587542062        1.1437064982
 H         -2.1324374926        2.9138508475        2.7977647130
 H          4.6692498156       -2.7940494356       -0.3938541984
 H         -4.3219943090       -0.7726996763        2.8274595785
 H          3.7862693419        0.5175763597       -2.6616465982
 H         -3.2064416193       -3.8099939404       -0.5997006379
 H          1.0425434547        3.8091609152       -2.4519944502
 H         -4.5583956697        0.0200736569       -2.0110350721
 H          4.6044190659        2.7546676122        1.4537426352
 H          1.0498885542        1.3800258627        4.0087726938
 H          1.0867064855       -1.7066090141       -0.5500521594
 H         -3.2265576255       -2.8355713568        3.1935739246
 H          3.0360090650       -1.6739997585       -3.2836996547
 H         -0.3448271758       -2.3511404522        1.3367266847
 H         -1.8847259444        1.7788584464       -3.6148003973
 H         -1.9538922942        1.9297120073       -0.1073009812
 H          1.5043410608        4.3540291542        1.1764288949
 H          2.2443864090        3.3480598609        3.9546841761
 H          0.2826279383       -3.7188829781       -1.3456994606
 H          2.3355001898       -3.8246587486       -3.6069797675
 H         -2.3188082249       -4.8388872238        3.5660702180
 H          0.3812043878       -4.3346922197        2.2276491476
 H         -3.3953268310        3.5414286080       -3.5377283773
 H         -2.8501880541        4.0119362167       -0.5719194890
         128
       -190.34118136
 C         -4.7949925735        4.3507012660        1.9736725768
 C         -5.0862188780        3.6996114163        3.3214894972
 C          5.2416969327       -1.8758086518       -4.3890969647
 C          5.0404151165       -0.9511345673       -5.5853480032
 C          6.0576692529       -3.0420090378        3.9817480085
 C          6.4527747770       -2.1911738613        2.7782247105
 C         -7.3913272249        0.1995909873       -2.2421760128
 C         -7.2615240312       -0.7691058380       -1.0716820872
 C         -3.3277064447        4.1697832561        1.6047380441
 C         -4.7184149866        2.2211238036        3.2845533947
 C          5.1033104418       -1.0988249988       -3.0846035344
 C          3.6775210975       -0.2720923978       -5.5105191662
 C          4.6100185792       -2.7730615567        4.3798546595
 C          5.5136948632       -2.4480983605        1.6039762160
 C         -6.2326713846        1.1895315462       -2.2367167831
 C         -5.9292447521       -1.5057560085       -1.1395923287
 C          0.9869314398        1.7748960691        0.2124977631
 C         -0.3651771502       -1.7500306323        3.4141762848
 C         -0.3956158888        1.8006078664       -3.2568044815
 C         -0.1939526951       -1.4343231161        0.0578554403
 C          1.8300939489        3.1759427873        1.9789704916
 C         -2.6246942052       -2.1816675446        2.6966599413
 C          3.3645066172        2.0067131469        0.5214608907
 C         -0.9710838947       -3.9381446897        2.6111521435
 C          0.6134647871        3.7850976905       -2.3409572891
 C          1.1639229821       -3.0749438776       -1.0656255100
 C         -1.7292767036        3.3313861205       -1.9599805564
 C         -1.1202526611       -2.6941601221       -1.7688692422
 C         -0.6126200422        2.9466752932        1.7045152816
 C         -1.9827665216        0.1103270934        3.3659196458
 C          2.5017326937        0.5595914922       -1.2983086105
 C          1.3914865021       -3.4669028565        3.1017996365
 C          2.0433003497        2.1564003901       -3.5020027071
 C          2.0976422959       -1.7963069598        0.8509966554
 C         -2.7615324415        1.2588894262       -2.8443955394
 C         -2.5293302177       -1.0147582844       -0.5943482972
 C          0.7491285572        2.6301696851        1.2867571849
 C         -1.6599606485       -1.2991820830        3.1870632752
 C          2.2851306863        1.4546903667       -0.1712568122
 C         -0.0038120961       -3.0575620743        3.0940731638
 C          0.7286613238        2.6027514421       -3.0697474458
 C          1.0201433858       -2.1045355095       -0.0745424776
 C         -1.6190193942        2.1498120508       -2.6972664729
 C         -1.2692877393       -1.7251531967       -0.7747999462
 C          3.1168631317        2.8536323224        1.5834525388
 C         -2.2678370318       -3.4891390171        2.4386314328
 C         -0.6143909370        4.1276341000       -1.8050454358
 C          0.0928209276       -3.3438219332       -1.8979976087
 C         -2.9635507216        2.6830315175        1.5337301824
 C         -3.2482012342        2.0244789908        2.9079259768
 C          3.7360262710       -0.4289282788       -2.9921599901
 C          3.5323201698        0.5245571155       -4.2170235870
 C          3.6707349808       -3.0603915107        3.2120818539
 C          4.0692997602       -2.1609662120        1.9989948043
 C         -4.8874975394        0.4680946518       -2.3087479143
 C         -4.7515540575       -0.5290784393       -1.1268558004
 Br         4.5951817830        3.5958750843        2.5458231329
 Br        -3.5856842573       -4.7034446286        1.7786401047
 Br        -0.7392426245        5.7402610309       -0.7922834413
 Br         0.3032185244       -4.6533442546       -3.2744618420
 N         -1.6064902725        2.4247788290        1.1246064107
 N         -2.9845044532        0.6254208619        2.7982250410
 N          3.6438620785        0.3640149033       -1.8082605026
 N          2.3212135602       -2.7203797310        3.5254899229
 N          2.2144932766        1.0451601630       -4.0843417098
 N          3.1703260123       -2.4618767184        0.9274075566
 N         -3.8302856917        1.4257276553       -2.1928378574
 N         -3.5382771022       -1.2612411493       -1.3131236162
 H         -5.4214629474        3.8954210555        1.2044025922
 H         -5.0289081868        5.4160167830        2.0130459405
 H         -6.1438311199        3.8041661678        3.5689712927
 H         -4.5081857379        4.2006490588        4.1019852472
 H          4.4957361461       -2.6732583704       -4.4165772699
 H          6.2297400868       -2.3366068884       -4.4349881032
 H          5.8249144009       -0.1908472634       -5.5945575618
 H          5.1115867375       -1.5202820303       -6.5136009948
 H          6.1733673118       -4.0995007087        3.7333470714
 H          6.7134693389       -2.8206312169        4.8254021120
 H          7.4775735487       -2.4199083387        2.4813400940
 H          6.4092033075       -1.1341398908        3.0506994660
 H         -8.3355712362        0.7431326104       -2.1774936407
 H         -7.3881024573       -0.3601075613       -3.1801497391
 H         -8.0769367556       -1.4941157119       -1.0917094652
 H         -7.3251010509       -0.2164421022       -0.1316210009
 H         -3.1237480118        4.6303753266        0.6377724230
 H         -2.7014986057        4.6677667012        2.3479637750
 H         -4.8935982352        1.7590492345        4.2586859097
 H         -5.3313892923        1.6982832736        2.5490480415
 H          5.8729105169       -0.3280614942       -3.0173524295
 H          5.2189611682       -1.7681095581       -2.2304932083
 H          2.8807259596       -1.0166678526       -5.5487609456
 H          3.5441137787        0.4083775330       -6.3540451674
 H          4.4853005857       -1.7316527108        4.6810112949
 H          4.3236614360       -3.4050192918        5.2231048164
 H          5.5866087684       -3.4863927763        1.2765881545
 H          5.7775710740       -1.8075500884        0.7605636901
 H         -6.2535664521        1.7869611212       -1.3242532418
 H         -6.3079252776        1.8710272490       -3.0865196638
 H         -5.8720693443       -2.0980118060       -2.0543634827
 H         -5.8290326292       -2.1882096669       -0.2939572596
 H          0.1393499696        1.3722737042       -0.3197602477
 H          0.3971095677       -1.0854262505        3.7906346841
 H         -0.2837343778        0.8885356786       -3.8223772288
 H         -0.3081340494       -0.6827942179        0.8245665176
 H          1.6664627487        3.8424285226        2.8125110983
 H         -3.6251789375       -1.8211827032        2.5229400462
 H          4.3668804627        1.7547339593        0.2146062146
 H         -0.7064327997       -4.9548656518        2.3628015641
 H          1.4757295527        4.4165347108       -2.1862361676
 H          2.1054971534       -3.5911244071       -1.1633859648
 H         -2.6819029270        3.5856857935       -1.5264296010
 H         -1.9562234343       -2.9172710435       -2.4122043811
 H         -0.6874488242        3.6479411209        2.5455286463
 H         -1.2762554857        0.6966997222        3.9732078139
 H          1.5984051319        0.0623510906       -1.6777039974
 H          1.5989466215       -4.4416803439        2.6356752890
 H          2.8852461907        2.8123917531       -3.2350268146
 H          1.9000760327       -0.9420329005        1.5161348951
 H         -2.6233043611        0.4218594137       -3.5432441771
 H         -2.5420741581       -0.2684310542        0.2125778102
 H         -3.5879775294        2.1856098273        0.7813758445
 H         -2.5928768903        2.5043289095        3.6598190019
 H          2.9287941304       -1.1783098601       -3.0387582394
 H          4.3019027745        1.3134842886       -4.1513473326
 H          3.7643421503       -4.1125020472        2.8898568036
 H          3.9588992547       -1.1144197809        2.3306974444
 H         -4.8084495918       -0.1177619375       -3.2402812596
 H         -4.7349855617        0.0553240287       -0.1909483374
