64
Coordinates from ORCA-job orca_calc
  C   7.19476266756740      0.41024500567800     -0.65008756437411
  C   7.19539823949891     -0.39710136225902      0.63742906255643
  C   -7.19611121316813      0.39786321644045     -0.64989290996239
  C   -7.19545018417334     -0.40945532725195      0.63764069835692
  C   5.93982274159586      1.25910583742864     -0.75294834020783
  C   5.94188261354583     -1.24807145930169      0.74021903752272
  C   -5.94264773091899      1.24891009846295     -0.75266697326556
  C   -5.94046565041052     -1.25824451229545      0.74054721467139
  C   -0.00131564452829      1.09495647018460     -1.36460985473962
  C   0.00061286733278     -1.09404010180439      1.35230130702165
  C   1.20709001557537      3.03105026704266     -0.59028721506160
  C   1.21223785589264     -3.02812974946343      0.57796099794309
  C   -1.21293510413168      3.02900316109229     -0.59016619636589
  C   -1.20778445887495     -3.03017970250361      0.57806604773128
  C   2.45489996827370      0.96652621230747     -1.21567663659898
  C   2.45657340820515     -0.96143566061728      1.20310376649228
  C   -2.45727566621104      0.96234945592749     -1.21544507664419
  C   -2.45559999498658     -0.96562252530096      1.20332700765039
  C   1.20925895245646      1.72582518253663     -1.08558838986036
  C   1.21222409419329     -1.72287671695549      1.07317789345175
  C   -1.21292709487308      1.72377847979517     -1.08545862085866
  C   -1.20995655350735     -1.72492763080440      1.07329675215039
  C   -0.00344668822419      3.66288542314125     -0.37330081934763
  C   0.00275234638015     -3.66203127763215      0.36113492301684
  C   4.66367669560564      0.43150465345041     -0.65564828728075
  C   4.66436292125455     -0.42260445641336      0.64285052987280
  C   -4.66508982007612      0.42350795846112     -0.65531523003851
  C   -4.66434915953139     -0.43059952685361      0.64319342193606
  Br  -0.00495964289874      5.46865560965363      0.27373258810966
  Br  0.00427036183799     -5.46784664144467     -0.28576190692031
  N   3.52001688309102      1.31420899970014     -0.61467577205276
  N   3.52218452346476     -1.30722292401411      0.60188323474136
  N   -3.52294164179109      1.30817381881242     -0.61434126693998
  N   -3.52066853013142     -1.31326385746116      0.60221514772889
  H   8.07645813274146      1.05080200656371     -0.70292289379923
  H   7.25145431702893     -0.26970392095912     -1.50473363638561
  H   8.07816376496144     -1.03617637382109      0.69033719956853
  H   7.25086511169864      0.28295246149613      1.49206871732145
  H   -8.07892418192095      1.03686848579677     -0.70284162550679
  H   -7.25150107098910     -0.28222016968530     -1.50451466709322
  H   -7.25221304317294      0.27050278912908      1.49227385645193
  H   -8.07710161527898     -1.05007478216437      0.69046318346632
  H   5.92774366336329      1.99777705577969      0.05135384315166
  H   5.92211157204544      1.81618088245454     -1.69083443404938
  H   5.93108620392938     -1.98678016412318     -0.06406677980246
  H   5.92505735194483     -1.80514345162698      1.67812398431541
  H   -5.92585801539482      1.80601046091474     -1.69055580423626
  H   -5.93189059429375      1.98759891765271      0.05163805402233
  H   -5.92272002235876     -1.81525364888840      1.67847183805825
  H   -5.92835577883572     -1.99696702117379     -0.06370710817456
  H   -0.00048823525849      0.08059135576907     -1.74240963488163
  H   -0.00022106051740     -0.07965600179373      1.73005077147399
  H   2.14579393361612      3.52090458007837     -0.37955301967720
  H   2.15175728903801     -3.51640398222043      0.36720686761194
  H   -2.15244835724765      3.51727264980754     -0.37937058028821
  H   -2.14649138589850     -3.52003985201211      0.36736055920331
  H   2.39132043577430      0.04943314116969     -1.81117888081401
  H   2.39151020003613     -0.04452339361536      1.79872261423160
  H   -2.39216723897383      0.04541591093356     -1.81102669598373
  H   -2.39206583327586     -0.04854788765659      1.79886046232712
  H   4.60934222692708     -0.26969222254752     -1.49788838156282
  H   4.60883645740706      0.27849730887259      1.48509827508918
  H   -4.60953782837269     -0.27758798136278     -1.49756517143370
  H   -4.61001772805726      0.27061762949400      1.48541793606103
