  142
 
 C          5.1728907737       -7.2160463371       -0.4342776489
 C          6.4082220904       -6.4338335899       -0.8677887630
 C         -6.2585008926       -5.5223058649        3.5156516264
 C         -6.9163106025       -5.7079030969        2.1523981185
 C          6.6488110118        5.9882229956        1.8158573034
 C          5.8492149258        6.0300266149        3.1135439947
 C         -6.3420788599        6.0407712642       -2.6648499285
 C         -5.1783786404        6.9442807633       -2.2712417647
 C          4.3086542004       -6.3718796519        0.4949669494
 C          6.0004287921       -5.1320207269       -1.5472786028
 C         -4.7594404087       -5.2986673403        3.3551384268
 C         -6.6436189375       -4.5000100420        1.2639403360
 C          6.4499159868        4.6499318002        1.1145600413
 C          4.3722636484        5.7813858419        2.8331291416
 C         -5.8358296474        4.6456452774       -3.0111136860
 C         -4.4148749085        6.3432839976       -1.0972814186
 C         -0.2594818494       -3.6231022747        1.7871150984
 C          4.6569995417        0.4939350841       -0.9178874107
 C         -4.5067444344       -0.7013999833       -1.1899361531
 C          0.0097521919        3.8939424371        1.1756897413
 C          1.7624330641       -2.4935665937        2.4444642457
 C          4.0165655239       -0.8155729160       -2.8348285536
 C         -0.3526088345       -1.8608259857        3.4253970080
 C          3.7294799401        1.5812786696       -2.8554313211
 C         -3.4062753195       -2.1014679342       -2.8110243859
 C         -0.1347384723        2.6706024369        3.2461346771
 C         -3.6207928789        0.2702625711       -3.2098231284
 C         -2.1262104151        3.0863063497        1.9440864733
 C          1.8851351414       -4.2499064635        0.7184889721
 C          4.9399200613       -1.9585043297       -0.8477679021
 C         -2.4402465528       -2.9899800991        2.7963049490
 C          4.3665092239        2.9577515036       -0.9183286127
 C         -4.2890694474       -3.1380217130       -0.7623889980
 C          2.0627781090        3.4941080180        2.5225861183
 C         -4.7783873581        1.7239929563       -1.5786558306
 C         -2.0096504312        4.3138409437       -0.1938828790
 C          1.1148744915       -3.4555904842        1.6664570440
 C          4.5369972249       -0.7425274373       -1.5406306050
 C         -0.9987356425       -2.8343254406        2.6655275975
 C          4.2519159234        1.6590957265       -1.5660087622
 C         -4.0659871853       -1.9615003028       -1.5907885846
 C          0.6289177613        3.3566409619        2.3026626425
 C         -4.2903488062        0.4142991226       -1.9911515243
 C         -1.3623301820        3.7639677228        0.9906401869
 C          1.0158045879       -1.7142409562        3.3005535857
 C          3.6214729202        0.3450228682       -3.4640210682
 C         -3.1938036129       -0.9826805448       -3.5973250088
 C         -1.4976150065        2.5486429485        3.0466908775
 C          3.8834223776       -5.0663366570       -0.1902152536
 C          5.1353748864       -4.2759732758       -0.6176826158
 C         -4.4778678053       -4.0783641771        2.4704609135
 C         -5.1380932665       -4.2744089419        1.0911121966
 C          4.9665807946        4.3921461032        0.8250975041
 C          4.1651976622        4.4281873366        2.1396577431
 C         -5.0660069772        4.0305123914       -1.8386521469
 C         -3.8885826565        4.9443891914       -1.4431426269
 Br         1.8999644802       -0.3671419535        4.3189054854
 Br         2.8842331536        0.2435656043       -5.2246274673
 Br        -2.2781016904       -1.1874651639       -5.2688083296
 Br        -2.5327635505        1.5767612212        4.3235672891
 N          3.1470509269       -4.2690557294        0.7452180057
 N          4.7186685941       -3.1047575352       -1.3277410446
 N         -3.0618458911       -3.9629542748        2.2862953234
 N          4.8424941379        3.0903889437        0.2429591366
 N         -4.9375367780       -3.0869572539        0.3184691985
 N          2.7712470876        4.2853266002        1.8400814519
 N         -4.5442609604        2.7639924035       -2.2541919345
 N         -3.2662120449        4.3893667545       -0.2800719920
 H          4.5919232108       -7.4972001991       -1.3155446369
 H          5.4705322796       -8.1314641094        0.0804004303
 H          7.0067705636       -7.0317593532       -1.5571450575
 H          7.0230946737       -6.2105410570        0.0070198793
 H         -6.7020433750       -4.6611925808        4.0202863072
 H         -6.4290867362       -6.4029840589        4.1374425946
 H         -6.5196438173       -6.6073176244        1.6759618031
 H         -7.9937639209       -5.8358586166        2.2703034619
 H          6.3197190079        6.7964593600        1.1588489253
 H          7.7100941060        6.1340722479        2.0247484524
 H          5.9679052464        7.0017053625        3.5962483126
 H          6.2229322390        5.2647360292        3.7972276956
 H         -6.8671440631        6.4598580117       -3.5249439751
 H         -7.0500543438        5.9762607108       -1.8355117186
 H         -5.5479901380        7.9333015230       -1.9943316893
 H         -4.5038893160        7.0614174641       -3.1223993210
 H          3.4106425471       -6.9210836371        0.7877481997
 H          4.8618907531       -6.1228459951        1.4026650438
 H          6.8838764149       -4.5573140521       -1.8326868358
 H          5.4286337423       -5.3405602593       -2.4531181796
 H         -4.2933439444       -6.1726075928        2.8964561362
 H         -4.2906093777       -5.1387573714        4.3285175063
 H         -7.0771190128       -3.6007217000        1.7045884778
 H         -7.0921562001       -4.6418319288        0.2783416796
 H          6.8222698822        3.8368269454        1.7399012961
 H          6.9995141350        4.6275703342        0.1710393704
 H          3.9732741437        6.5657197182        2.1870713830
 H          3.7996581583        5.7871333019        3.7631591675
 H         -5.1686940308        4.6890830203       -3.8737523380
 H         -6.6704462157        3.9887324232       -3.2646633097
 H         -5.0665416935        6.2611062479       -0.2253594759
 H         -3.5674209829        6.9770497303       -0.8260346956
 H         -0.7814909767       -4.3636477159        1.2024070437
 H          5.0543511048        0.5787310980        0.0816073407
 H         -5.0188849763       -0.6168928526       -0.2445299006
 H          0.6197101037        4.4177953586        0.4565745743
 H          2.8304893637       -2.3769965126        2.3499731261
 H          3.9292145991       -1.7800269803       -3.3085215663
 H         -0.9165874563       -1.2341022021        4.1002010226
 H          3.4077360668        2.4737379097       -3.3706190671
 H         -3.0673737088       -3.0712817748       -3.1422890895
 H          0.3358191057        2.2468590846        4.1201014555
 H         -3.4591566486        1.1424412419       -3.8225325891
 H         -3.1893048851        2.9958126248        1.7916022533
 H          1.2988715444       -4.8211329685       -0.0157882270
 H          5.4433711576       -1.8134424603        0.1192769550
 H         -2.9513743911       -2.2098688559        3.3785299950
 H          4.0191025418        3.8189222056       -1.5091268426
 H         -3.8625947350       -4.0781327645       -1.1439610214
 H          2.4792347666        2.8787055673        3.3321319970
 H         -5.3719407404        1.7424568016       -0.6536972685
 H         -1.3377646269        4.6536832931       -0.9949270129
 H          3.2829654506       -5.3018786075       -1.0852036609
 H          5.6983139734       -4.0173220041        0.2969954554
 H         -4.9029975147       -3.1726736599        2.9370658845
 H         -4.6746577150       -5.1555713443        0.6122840582
 H          4.5691428903        5.1774481775        0.1573742754
 H          4.5241667319        3.6172392446        2.7960784080
 H         -5.7241786281        3.9305561350       -0.9575210127
 H         -3.1865274148        5.0123058046       -2.2919513942
 C         -0.4872997125       -1.2983360818       -1.1122365647
 C          0.9629286306       -1.1610950954       -1.5716588289
 O         -0.6054205112       -1.0240282359        0.2725644875
 C         -0.1050971845        0.2662629852        0.5672948306
 C          1.3466962618        0.3974272804        0.1107033534
 O          1.4501653477        0.1367189499       -1.2756647538
 H         -0.8505993859       -2.3152941390       -1.2515458990
 H          1.5907391754       -1.9110607925       -1.0691070968
 H         -0.7197498505        1.0256318355        0.0630528941
 H          1.9726261604       -0.3185108299        0.6616490185
 H          1.0375402165       -1.2795936177       -2.6519657408
 H         -0.1861579526        0.3869038996        1.6462974958
 H          1.7176485883        1.4102487946        0.2672148760
 H         -1.1159494270       -0.5947465324       -1.6754611050
         142
       -211.13422809
 C          2.9687907281       -6.7439599535        2.8225556363
 C          2.2390380628       -6.9773803698        1.5037800787
 C         -3.5811023067        3.9945844797        5.5827061718
 C         -4.3646728718        3.7701132116        4.2935099772
 C         -4.2734972960        4.8210064290       -3.3382244545
 C         -4.4366823314        4.1323072201       -4.6892793235
 C          7.6114299059       -0.7215349938       -2.2337198503
 C          7.3022891922       -1.3104314092       -3.6063259661
 C          3.3990138408       -5.2863035384        2.9388566241
 C          1.0318160257       -6.0540857938        1.3942057701
 C         -2.3774651840        3.0610300410        5.6436402313
 C         -3.4652567655        3.9808356823        3.0806641308
 C         -4.2706013761        3.7925193755       -2.2126429306
 C         -3.3253342394        3.1110214585       -4.9035540690
 C          6.5940576412        0.3552157953       -1.8763119134
 C          5.8892295268       -1.8814921234       -3.6321467197
 C          1.4526302254        0.2647182800        3.8370129637
 C         -1.0220945073       -0.8048732869       -0.1299047094
 C          1.3280379933        1.5962744913        0.3567726275
 C          0.1066560874       -0.4686829013       -3.7226454185
 C          3.5911192573       -0.3047436311        2.8871225925
 C         -2.0605491450       -2.1644084539        1.5623233311
 C          2.9832639288        2.0127496966        3.2024066392
 C         -3.2070728804       -0.2203711024        0.6939839244
 C          0.4627633051        3.7960974809       -0.1060426101
 C         -1.3974888658       -2.2313290369       -3.0579805806
 C          2.4131203691        2.9859636055       -1.2824826697
 C          0.9890217102       -2.6071805672       -3.0495350113
 C          1.9888183415       -2.1093475798        3.4581166219
 C          0.1887927932       -2.7773719425        0.7236486298
 C          0.7348261580        2.6252573340        4.0070767257
 C         -2.1520580712        1.1618456146       -1.0745016753
 C         -0.6475308138        2.3775428073        1.5972040950
 C         -2.3331702391       -0.0308267107       -3.6067149999
 C          3.3262491107        0.7330607040       -0.8044387786
 C          2.5510422257       -0.7750250376       -3.6359378739
 C          2.3570773828       -0.7003599527        3.4100209093
 C         -0.9796268159       -1.9078461058        0.7171414002
 C          1.7484685458        1.6218494372        3.7183244563
 C         -2.1317633366        0.0360707456       -0.1538875264
 C          0.3865811283        2.5942289852        0.5970671428
 C         -1.1910818041       -0.9241517294       -3.4976726206
 C          2.3461953679        1.7854810206       -0.5729532382
 C          1.1988334254       -1.2956344668       -3.4844368769
 C          3.8849598626        1.0412767008        2.8048812834
 C         -3.1468831368       -1.3129159613        1.5376717797
 C          1.4690707235        3.9649169918       -1.0390195721
 C         -0.3029271420       -3.0517287706       -2.8537491482
 C          2.1969092069       -4.3484059678        2.8365257914
 C          1.4516505270       -4.5863834652        1.4979445020
 C         -1.4576710638        3.2715237339        4.4435772646
 C         -2.2634402532        3.0424559468        3.1220369644
 C         -3.1551333487        2.7705854920       -2.4098067674
 C         -3.3229468276        2.0631777157       -3.7930374896
 C          5.1718568559       -0.2079337446       -1.8873891891
 C          4.8570588679       -0.8107124185       -3.2816693279
 Br         5.5703195208        1.5853698653        2.0881030051
 Br        -4.6089249236       -1.6448327149        2.7152752806
 Br         1.5487975976        5.5990748131       -2.0256754274
 Br        -0.5921323236       -4.8405810836       -2.2547334295
 N          2.6504159630       -2.9905867189        2.8417961309
 N          0.2815001959       -3.7673863781        1.4996320171
 N         -0.4134855313        2.3043981186        4.4321400789
 N         -3.2175822789        1.7644957882       -1.3953791849
 N         -1.3803244472        3.3122767665        2.0330111503
 N         -2.2078428104        1.1866591598       -3.9312579085
 N          4.2464632005        0.8550335548       -1.6583326074
 N          3.5574874051       -1.4055195449       -3.2067112581
 H          2.3069913571       -6.9952301019        3.6543949879
 H          3.8474805928       -7.3881429349        2.8843458902
 H          1.9069728150       -8.0144773540        1.4365711552
 H          2.9188923638       -6.7867112700        0.6706119835
 H         -3.2393621122        5.0312735181        5.6260751179
 H         -4.2231315128        3.8146898030        6.4464074957
 H         -4.7594198272        2.7516699762        4.2803629836
 H         -5.2088429566        4.4596583545        4.2443765406
 H         -3.3329389250        5.3761810300       -3.3245519398
 H         -5.0865570962        5.5311798957       -3.1798052278
 H         -4.4093339774        4.8715716367       -5.4913215257
 H         -5.4052280250        3.6284486852       -4.7272292068
 H          8.6126797918       -0.2880712050       -2.2280248832
 H          7.5825327893       -1.5128600864       -1.4815075687
 H          8.0173039611       -2.0993968902       -3.8455508697
 H          7.3933920917       -0.5308427212       -4.3659454986
 H          3.8982977447       -5.1102033658        3.8938774108
 H          4.0999692723       -5.0349015314        2.1410880389
 H          0.5211872750       -6.2032227044        0.4410182458
 H          0.3206102831       -6.2643916815        2.1944540581
 H         -2.7055812983        2.0203123000        5.6485077438
 H         -1.8035514692        3.2381144018        6.5555460058
 H         -3.1004412903        5.0088193208        3.0517348796
 H         -4.0191130830        3.7931308039        2.1592047714
 H         -5.2243504391        3.2631506099       -2.1790895357
 H         -4.1222682946        4.2846756891       -1.2499099281
 H         -2.3528743477        3.6058721317       -4.9138207696
 H         -3.4545777900        2.6019267011       -5.8608257386
 H          6.6434430073        1.1757742345       -2.5937181293
 H          6.7994102589        0.7622081024       -0.8843911413
 H          5.7979087955       -2.6960042250       -2.9115970042
 H          5.6560649939       -2.2795841925       -4.6218573625
 H          0.4911760371       -0.0157181851        4.2384634852
 H         -0.1888201343       -0.6005872319       -0.7874120364
 H          1.2707075070        0.6689166154        0.9091542551
 H          0.2430760614        0.5480417670       -4.0572251881
 H          4.2862685295       -1.0602369097        2.5575658253
 H         -2.0202939060       -3.0220529535        2.2146433909
 H          3.2269956899        3.0599087466        3.1043529970
 H         -4.0567118037        0.4424841447        0.6815965082
 H         -0.2687864914        4.5636270288        0.0896408281
 H         -2.3988266235       -2.5818800078       -2.8592206258
 H          3.2039735118        3.1222072481       -2.0023253312
 H          1.8429417241       -3.2415648636       -2.8728119522
 H          1.0839704995       -2.3464774618        4.0347012117
 H          0.9815485182       -2.5126077725        0.0055867910
 H          1.0078200067        3.6662507187        3.7803688851
 H         -1.1731574267        1.4479143263       -1.4856435864
 H         -0.7404686083        1.3426633397        1.9578087085
 H         -3.3021880583       -0.4715893893       -3.3404475699
 H          3.2103918247       -0.1694207817       -0.1834600905
 H          2.6322387749        0.2104962370       -4.1150360499
 H          1.4790214520       -4.5418683150        3.6514719948
 H          2.1375317400       -4.3208747023        0.6742803596
 H         -1.0707401237        4.3051156395        4.4194470959
 H         -2.5874020567        1.9886495958        3.1292086291
 H         -2.1701170360        3.2646665883       -2.4261588871
 H         -4.2807628996        1.5150556630       -3.7689327370
 H          5.0673493147       -1.0126280742       -1.1384113579
 H          4.8868578997        0.0157193548       -4.0117967850
 C         -5.5840595361       -0.8451453818       -1.7475462872
 C         -6.7913605125       -0.9206470644       -0.8133624645
 O         -4.6746417912       -1.9060876604       -1.4854353945
 C         -5.3266666373       -3.1643055634       -1.5868812366
 C         -6.5419500283       -3.2280205340       -0.6607738019
 O         -7.4416887447       -2.1723888431       -0.9483617960
 H         -5.0221473375        0.0790335944       -1.5973705208
 H         -6.4680973328       -0.7871581109        0.2279550536
 H         -5.6495535418       -3.3247047094       -2.6261238203
 H         -6.2164488398       -3.1580009891        0.3863264597
 H         -7.5292361078       -0.1615166390       -1.0726958771
 H         -4.5875842703       -3.9159225498       -1.3073071247
 H         -7.0947621031       -4.1546472163       -0.8146047383
 H         -5.9311047149       -0.9159936045       -2.7897719905
