  142
 
 C         -1.6864241215       -7.1281021445        5.0131260374
 C         -1.2365232606       -6.4718609098        6.3141905199
 C         -3.8259563302       -4.5060728205       -6.7212157697
 C         -2.4705067609       -4.9846738968       -7.2304480826
 C         -1.1325455421        6.2335825136        6.6722758444
 C         -2.2885149433        6.5692511347        5.7362451224
 C          4.7133584106        5.3944161147       -5.7359442136
 C          4.3969141972        6.3533309137       -4.5932279449
 C         -2.3016176059       -6.0915303334        4.0803486645
 C         -0.2451504016       -5.3503636108        6.0275858984
 C         -3.7936602035       -4.3358813277       -5.2069658473
 C         -1.3755984080       -4.0067134914       -6.8211892992
 C         -0.7245735602        4.7745562318        6.5073468432
 C         -1.9017121199        6.2765046562        4.2917649824
 C          4.6838215171        3.9531623143       -5.2414966142
 C          3.0397283575        6.0221089354       -3.9844122482
 C         -2.4236832891       -3.0873209239       -0.5080188744
 C          0.5366520175        0.2854798129        4.8117042875
 C          1.5910644223       -0.8659830704       -4.3008907222
 C         -0.2094900824        4.1033743257        0.0781034722
 C         -3.0446043888       -1.8563903056        1.4656491509
 C          2.1793500742       -1.4120849965        4.3432524853
 C         -3.6125328862       -1.0043061005       -0.7223640399
 C          2.7593389276        0.9224873681        4.1404596500
 C          2.7270702093       -2.6002183563       -3.0757097464
 C         -2.4675585060        3.3720181714       -0.3347230169
 C          3.6595596028       -0.3747838437       -3.1655349720
 C         -0.8858336573        3.5040893156       -2.1553831946
 C         -1.7728993262       -3.9533479890        1.7192450710
 C         -0.1030487402       -2.0922488741        5.0030392709
 C         -3.0113440788       -2.2280507739       -2.7644213519
 C          1.1122255486        2.6898485236        4.6055432305
 C          0.6160943408       -3.1483196518       -4.2132694212
 C         -1.8382490039        3.9962432951        1.9554899928
 C          2.5321578656        1.4144737978       -4.4467789692
 C          1.4417814011        4.2247539836       -1.7627116566
 C         -2.4279978170       -2.9619798844        0.8760855026
 C          0.8818451225       -1.0574494783        4.7198791932
 C         -3.0161847527       -2.1170641994       -1.3128899740
 C          1.4672787325        1.2806973197        4.5197635774
 C          1.6516291162       -2.1871940280       -3.8609634977
 C         -1.4905557614        3.8249809023        0.5508556540
 C          2.5876603916        0.0419397639       -3.9602586112
 C          0.0989636849        3.9466660386       -1.2687616253
 C         -3.6167109603       -0.9002496744        0.6555993665
 C          3.0894873762       -0.4171920628        4.0589953794
 C          3.7103481141       -1.6859378190       -2.7405175933
 C         -2.1444568067        3.2198503975       -1.6705877758
 C         -1.3019050372       -4.9675199144        3.7771744174
 C         -0.8579779617       -4.3021238618        5.0943549475
 C         -2.7007063467       -3.3450535451       -4.7888876059
 C         -1.3316843472       -3.8373981511       -5.2990931002
 C         -0.3302827302        4.4709347877        5.0572178563
 C         -1.5036595322        4.8047501223        4.1173579090
 C          3.3242527729        3.6077738421       -4.6267112008
 C          3.0066681482        4.5771074517       -3.4702255863
 Br        -4.4086813434        0.6322679408        1.4665418436
 Br         4.8574972550       -0.9014301810        3.5175108869
 Br         5.1792374244       -2.2645270988       -1.6533644844
 Br        -3.4760705953        2.5645093432       -2.8721837106
 N         -1.9481055719       -3.9763222141        2.9691600848
 N          0.1353166806       -3.3146745103        4.7979043630
 N         -2.6597465573       -3.2849627470       -3.3581305115
 N         -0.0383119370        3.0734040858        4.9546738513
 N         -0.3451689606       -2.8530408198       -4.9749486026
 N         -1.0845795215        4.6102017051        2.7609744062
 N          3.3883213714        2.2763820960       -4.1049293170
 N          1.6863686189        4.2894338612       -2.9988643198
 H         -0.8277344227       -7.5933654575        4.5238568292
 H         -2.4205130197       -7.9086181983        5.2214091818
 H         -0.7690220955       -7.2128851022        6.9648159120
 H         -2.1055777358       -6.0647204297        6.8359174201
 H         -4.0744666251       -3.5507670096       -7.1886937089
 H         -4.6023302208       -5.2251113022       -6.9886944856
 H         -2.2523445989       -5.9706738024       -6.8139243133
 H         -2.4889676537       -5.0744716981       -8.3180029036
 H         -0.2805281879        6.8782230038        6.4448717043
 H         -1.4248672516        6.4135900437        7.7083137925
 H         -2.5561184580        7.6229143591        5.8333667363
 H         -3.1620617577        5.9720472917        6.0064695594
 H          5.6990782019        5.6161073475       -6.1486165157
 H          3.9771791604        5.5215956034       -6.5328496364
 H          4.3886300281        7.3821269961       -4.9578701057
 H          5.1696522988        6.2728818736       -3.8254194926
 H         -2.6027427848       -6.5546155504        3.1376681694
 H         -3.1897857306       -5.6514831041        4.5380823145
 H          0.0561145289       -4.8606574885        6.9558383852
 H          0.6522551401       -5.7503671784        5.5525657997
 H         -3.5950789911       -5.2936627086       -4.7225824751
 H         -4.7553463020       -3.9674422715       -4.8432996875
 H         -1.5548840526       -3.0284917467       -7.2703568606
 H         -0.4004311731       -4.3603981456       -7.1627443670
 H         -1.5519591258        4.1177797036        6.7810553213
 H          0.1213270195        4.5385884624        7.1566240085
 H         -1.0575213684        6.9008426542        3.9929223463
 H         -2.7355515198        6.4934629295        3.6205668802
 H          5.4523223106        3.7983681081       -4.4821893664
 H          4.8809689719        3.2631252095       -6.0645327014
 H          2.2519377454        6.1410710959       -4.7306726660
 H          2.8188715500        6.6934077387       -3.1513503466
 H         -1.9600684767       -3.9350363315       -0.9867928109
 H         -0.4586299427        0.5870709245        5.0989759498
 H          0.7526947168       -0.5693111480       -4.9110910005
 H          0.5321840035        4.4493262920        0.7808366708
 H         -3.0502483798       -1.7724125134        2.5409059996
 H          2.4362090715       -2.4569560970        4.2765086807
 H         -4.0635798122       -0.2387201714       -1.3360821353
 H          3.4916448663        1.6807023091        3.9075237270
 H          2.7957635693       -3.6221199502       -2.7349343868
 H         -3.4614734633        3.1493128149        0.0221189291
 H          4.4262962013        0.3380590826       -2.9082321564
 H         -0.6357749818        3.3906024455       -3.1975932468
 H         -1.1197747195       -4.6687063256        1.1988044609
 H         -1.0658443300       -1.7399749369        5.4012972696
 H         -3.3450575751       -1.3339245162       -3.3103011563
 H          1.9138485074        3.4009619485        4.3544112766
 H          0.7299831065       -4.1531545406       -3.7789620716
 H         -2.8056788749        3.5728003105        2.2592931153
 H          1.7084361184        1.6428728683       -5.1378008362
 H          2.2152411765        4.3725919724       -0.9955747941
 H         -0.4176528882       -5.3912051531        3.2715839346
 H         -1.7519087093       -3.8512273210        5.5612778511
 H         -2.9046918242       -2.3548888379       -5.2323902093
 H         -1.1148693565       -4.8066767541       -4.8153717698
 H          0.5349304114        5.0913888304        4.7623389895
 H         -2.3591392503        4.1570926312        4.3744141599
 H          2.5243798040        3.7115023927       -5.3810432710
 H          3.7631387123        4.4489693093       -2.6769390968
 C          0.9223608325       -1.4633323842       -0.3367621786
 C          1.2308360166       -1.4434127724        1.1590695039
 O         -0.3452356240       -0.8871537672       -0.5977002870
 C         -0.4045697065        0.4322650616       -0.0901037321
 C         -0.1003528882        0.4468766333        1.4067672341
 O          1.1734366179       -0.1162724124        1.6537786925
 H          0.8754791511       -2.4828329126       -0.7162594957
 H          0.5069090257       -2.0679963759        1.7021881875
 H          0.3215492238        1.0655338228       -0.6196515169
 H         -0.8634621327       -0.1337604604        1.9438161962
 H          2.2427232227       -1.7996551644        1.3484037394
 H         -1.4139808198        0.7903586696       -0.2856286718
 H         -0.0719249129        1.4661054013        1.7918301820
 H          1.6949624886       -0.8974415592       -0.8755709159
