96
HPVISMWRRURKMP-FQUPQTDFSA-N
 C          2.2583042050        6.7186083810        3.2269563046
 C          0.9810440979        6.5840200142        4.0483235571
 C          4.0964086867       -6.1520816225        3.2303896665
 C          3.4015551720       -6.9948408292        2.1656137689
 C         -7.1607966664       -4.6828165882        1.1894666969
 C         -6.7185739513       -5.3645966494       -0.1017126819
 C          2.7459307808        5.3454683623        2.7821872396
 C         -0.0931784704        5.8717894224        3.2359729361
 C          4.5622757464       -4.8259750608        2.6402808167
 C          2.2248717786       -6.2317648503        1.5677789836
 C         -6.8632024153       -3.1884565282        1.1340652346
 C         -5.2343984135       -5.1217267927       -0.3528756147
 C          3.0156785240        0.6417913852        1.0495003510
 C         -2.5617554329        0.8669440047        1.6319773501
 C         -0.7167185193       -2.8415401408       -0.7823183969
 C          4.1403829999        1.6270486406       -0.8389751201
 C         -2.8277169369        2.9411826727        0.4379430774
 C          4.5118183327       -0.6940706312       -0.2844462637
 C         -4.3366486678        1.1007423653        0.0213675845
 C          0.9497685197       -1.2494333820       -1.4847694663
 C         -1.3908575082       -0.7684842774       -1.8137455304
 C          2.6784072859        3.0486727981        0.5388156376
 C         -1.0625644383        2.7555600454        2.1626738766
 C          3.2687465994       -1.7635986454        1.5632907189
 C         -4.0512268737       -1.0524462641        1.2081826432
 C          1.7007829700       -3.3396956433       -0.4462579615
 C         -3.1285419762       -2.3754901618       -1.1741119080
 C          3.2765998064        1.7514933530        0.2484347119
 C         -2.1533041377        2.1755703270        1.3907615962
 C          3.6165594835       -0.5838604467        0.7835179966
 C         -3.6516375440        0.3240844860        0.9566171335
 C          0.6190742940       -2.4769439313       -0.9089906091
 C         -1.7237286332       -2.0044284174       -1.2570157235
 C          4.7535037995        0.4095151006       -1.0768423697
 C         -3.9048817577        2.3896226035       -0.2277322281
 C         -0.0612960502       -0.4044949117       -1.8979511246
 C          1.6774022789        4.6166270425        1.9543349719
 C          0.3806781258        4.4895387851        2.7761237967
 C          3.3876140368       -4.0437999557        2.0528193548
 C          2.6806320186       -4.9052668121        0.9656940141
 C         -5.3751916828       -2.9375690610        0.9013967991
 C         -4.9312963535       -3.6278008004       -0.4251088562
 Br         5.9574545085        0.2477122059       -2.5600648391
 Br        -4.8306670811        3.4406567567       -1.5334502816
 Br         0.3972910441        1.3097603321       -2.6107469725
 N          2.1665521060        3.3010178391        1.6644822460
 N         -0.6426670826        3.9254900910        1.9498149988
 N          3.8606090186       -2.8679831222        1.3993275885
 N         -5.1208647150       -1.5427932624        0.7444579726
 N          1.5448024564       -4.1720408995        0.4903475763
 N         -3.5262567787       -3.4103581093       -0.5655549925
 H          2.0638691698        7.3383885479        2.3490025077
 H          3.0367214334        7.2041395549        3.8183776765
 H          1.1899438850        6.0146430633        4.9568932207
 H          0.6191685578        7.5702931280        4.3437414873
 H          3.4029953372       -5.9600894679        4.0524636568
 H          4.9554640512       -6.6913592746        3.6332845510
 H          3.0463806477       -7.9299422784        2.6020281745
 H          4.1140116851       -7.2411737896        1.3750486169
 H         -8.2302249232       -4.8348391294        1.3451785351
 H         -6.6305158033       -5.1268668601        2.0350799849
 H         -6.9070476769       -6.4378164793       -0.0407917894
 H         -7.2976962461       -4.9679591029       -0.9387753805
 H          2.9849346387        4.7307559096        3.6524221655
 H          3.6507012926        5.4376610046        2.1769455786
 H         -1.0025569870        5.7502229075        3.8281826687
 H         -0.3457209781        6.4565681005        2.3499008716
 H          5.0398673028       -4.2136499585        3.4082705061
 H          5.2913770205       -4.9998653786        1.8472320999
 H          1.4782923235       -6.0230330004        2.3357280752
 H          1.7451571904       -6.8223643465        0.7851624412
 H         -7.1561924499       -2.7068292598        2.0693036842
 H         -7.4242707748       -2.7192437053        0.3243451712
 H         -4.6365701110       -5.5572861787        0.4492443561
 H         -4.9258958883       -5.5853865760       -1.2918341080
 H          2.3343660039        0.7557583400        1.8775315745
 H         -2.0333662758        0.2663409982        2.3584311612
 H         -0.9776514253       -3.7862704103       -0.3351506247
 H          4.3346215953        2.4726900346       -1.4807877475
 H         -2.4955704639        3.9491569544        0.2494811100
 H          4.9860151995       -1.6437692209       -0.4731632014
 H         -5.1879856171        0.6780551998       -0.4875106370
 H          1.9834389563       -0.9555633746       -1.5831180620
 H         -2.1645020838       -0.1048851402       -2.1690986189
 H          2.7329775873        3.7942909094       -0.2666246902
 H         -0.6547866910        2.1212376997        2.9637681864
 H          2.4405604963       -1.6395719730        2.2764024048
 H         -3.3589358788       -1.6423098824        1.8270906430
 H          2.6659427719       -3.1977503102       -0.9529968754
 H         -3.8265494622       -1.6914413735       -1.6783046339
 H          1.4678038381        5.1894010779        1.0354890694
 H          0.6015923722        3.8468425917        3.6468442487
 H          2.6444312629       -3.8117471902        2.8366190029
 H          3.4180860243       -5.0731899883        0.1638150645
 H         -4.7732801121       -3.3764024805        1.7163342778
 H         -5.5022779987       -3.1524474099       -1.2405944113