96
HPVISMWRRURKMP-FQUPQTDFSA-N
 C          2.0713537288        7.1682667659        2.3664238447
 C          0.8454257271        7.0138313219        3.2586549376
 C          4.0592649819       -6.9056630729        2.3238090556
 C          3.4974301064       -7.4924108187        1.0328956339
 C         -7.0076680176       -4.7044916679        1.4555835336
 C         -6.5738409457       -5.4296233501        0.1854622009
 C          2.6524013229        5.7991960688        2.0397062933
 C         -0.1952375206        6.1404383733        2.5704779120
 C          4.4990042182       -5.4629126568        2.1038061520
 C          2.3308021523       -6.6499588789        0.5300764168
 C         -6.7585766887       -3.2059050374        1.3265095363
 C         -5.1037639144       -5.1539104912       -0.1100563943
 C          2.6375220612        0.1407078220        1.4660724554
 C         -2.6759384663        1.0648867481        1.6068385527
 C         -0.6571542755       -2.8773982421       -0.9157530023
 C          4.0766144595        1.6267990742        0.2345351682
 C         -2.9610668973        3.0073935113        0.2109000334
 C          4.5635181360       -0.7385558273        0.3197696135
 C         -4.4012155890        1.0885330120       -0.0720558066
 C          0.9576855714       -1.2410740429       -1.6421484273
 C         -1.4008209059       -0.7566526014       -1.7863783841
 C          2.1248124670        2.5564619509        1.4477115611
 C         -1.2170315824        3.0261438964        1.9630878190
 C          3.0673214439       -2.2884571661        1.5377920373
 C         -4.0607444418       -0.9527232810        1.2830182496
 C          1.7704015201       -3.3997220647       -0.7980560589
 C         -3.0914331522       -2.3974511848       -1.1048365843
 C          2.9551608563        1.4269828604        1.0402766765
 C         -2.2961645209        2.3554734653        1.2501977453
 C          3.4323542742       -0.9458469158        1.1106684993
 C         -3.7184163643        0.4211492436        0.9457675064
 C          0.6677884027       -2.5025109226       -1.1193310860
 C         -1.6947105345       -2.0179053181       -1.2653226156
 C          4.8603319342        0.5416775419       -0.1070633666
 C         -4.0061556003        2.3649886599       -0.4243544125
 C         -0.0807556871       -0.3817510227       -1.9465926435
 C          1.6155478136        4.8941504555        1.3524057695
 C          0.3598831530        4.7462308972        2.2385668147
 C          3.3367005506       -4.6016158057        1.6133794260
 C          2.7548464282       -5.2017635189        0.2973396214
 C         -5.2843549153       -2.9191753053        1.0472965186
 C         -4.8473950205       -3.6561297160       -0.2536892778
 Br         6.4047140652        0.8174367718       -1.2046239323
 Br        -4.9310103653        3.2647873158       -1.8390373479
 Br         0.3168363045        1.3648627975       -2.6261242556
 N          2.3172259696        3.7075663743        0.9740411584
 N         -0.6612899310        4.0616736809        1.5084877108
 N          3.8000374573       -3.2905427967        1.2981719032
 N         -5.0848341951       -1.5262000693        0.8144516221
 N          1.6160325508       -4.4174985074       -0.0646041591
 N         -3.4502375106       -3.4124694647       -0.4425146353
 H          1.7889100215        7.6751798830        1.4419845811
 H          2.8284127233        7.7734356427        2.8683002269
 H          1.1377837227        6.5584609094        4.2081753293
 H          0.4097095578        7.9908594165        3.4745467192
 H          3.2931831690       -6.9375442126        3.1020018216
 H          4.9108232112       -7.4968754232        2.6648470295
 H          3.1603759852       -8.5163821207        1.2028616381
 H          4.2819964972       -7.5173945087        0.2732892730
 H         -8.0680405851       -4.8812776840        1.6437468250
 H         -6.4446792484       -5.0938693826        2.3070028907
 H         -6.7279495665       -6.5041692757        0.2976036956
 H         -7.1830877726       -5.0877215758       -0.6542915434
 H          2.9857356792        5.3078924982        2.9578850510
 H          3.5136141036        5.8931302918        1.3776185531
 H         -1.0749849123        6.0208763830        3.2077763635
 H         -0.5174791460        6.6062332410        1.6377886117
 H          4.8815360880       -5.0346988151        3.0327277879
 H          5.2965817422       -5.4193915284        1.3604404753
 H          1.5171416185       -6.6563624668        1.2571234076
 H          1.9456124902       -7.0533150844       -0.4083177482
 H         -7.0464502204       -2.6912495875        2.2457290630
 H         -7.3516225784       -2.7918133866        0.5095513272
 H         -4.4755870751       -5.5360541883        0.6961161547
 H         -4.8012513254       -5.6487176411       -1.0348636556
 H          1.7612573983       -0.0200273416        2.0783922731
 H         -2.1536741420        0.5518924373        2.4020206854
 H         -0.8816197369       -3.8486751456       -0.5073086439
 H          4.3050349304        2.6253078931       -0.1007899190
 H         -2.6459297221        3.9990421985       -0.0702626544
 H          5.1797622402       -1.5834172108        0.0575586619
 H         -5.2202653104        0.5906092030       -0.5655262824
 H          1.9820841094       -0.9382615234       -1.7970220829
 H         -2.1974590198       -0.0799096444       -2.0550541911
 H          1.3510662385        2.3059030314        2.1811502580
 H         -0.9257715826        2.5663574468        2.9228468643
 H          2.1119760940       -2.3761797055        2.0769282868
 H         -3.3602835671       -1.4670488678        1.9582941178
 H          2.7432124004       -3.1306920660       -1.2341950124
 H         -3.8176815153       -1.7363292393       -1.5992835400
 H          1.3080482258        5.3621397174        0.4091029480
 H          0.6252623081        4.2269080930        3.1799768374
 H          2.5200395347       -4.5849618364        2.3564140980
 H          3.5523265592       -5.1429266356       -0.4620515197
 H         -4.6513953038       -3.2947314936        1.8708264775
 H         -5.4484600229       -3.2347419537       -1.0768132232