96
HPVISMWRRURKMP-FQUPQTDFSA-N
 C          2.6885809060        6.5712910678        1.3452923446
 C          1.4082861729        7.1860779380        1.9244231141
 C          3.6665490819       -7.1883770079        1.3518719680
 C          3.5341064061       -7.4649557276       -0.1416352937
 C         -6.3873763933       -4.9969647338        1.4516553833
 C         -6.1389745775       -5.5853160560        0.0664670716
 C          2.3982932995        5.8914166232        0.0130905777
 C          0.1621391263        6.4155149475        1.4780531211
 C          4.0310805278       -5.7275348021        1.5848107155
 C          2.4743476124       -6.5567237604       -0.7524303668
 C         -6.2300191423       -3.4810955706        1.4211598723
 C         -4.7497477200       -5.2033027789       -0.4311434704
 C          2.3567202939       -0.0396017830        0.7796164965
 C         -2.4176675075        1.0548085388        1.3228276789
 C         -0.5535646768       -2.7157591262       -1.5413985670
 C          4.1384436496        1.5159494206        1.2391315273
 C         -3.1721706049        3.0674317887        0.2335974972
 C          4.4737804301       -0.8468334120        1.6009192025
 C         -4.5006447771        1.0562692442        0.1110778507
 C          0.9633638256       -1.0152713791       -2.3240236747
 C         -1.4190147982       -0.6047349478       -2.3106477931
 C          2.0137229099        2.3775078627        0.3326055628
 C         -1.0361036378        3.1090660663        1.4663884793
 C          2.6650469643       -2.4683916411        1.1658933733
 C         -3.7113806054       -1.0462984814        1.1334910903
 C          1.8808776077       -3.1617334357       -1.5143424341
 C         -2.9996302347       -2.3066990186       -1.4923658521
 C          2.8406662368        1.2656098788        0.7899871015
 C         -2.2246141392        2.3973223608        1.0097330982
 C          3.1654183347       -1.0969877720        1.1873735640
 C         -3.5445679181        0.3752107972        0.8662918018
 C          0.7461363648       -2.2949858360       -1.8104214507
 C         -1.6384664514       -1.8813727356       -1.7907430667
 C          4.9319675435        0.4561225279        1.6304165393
 C         -4.2967144048        2.3882245404       -0.1919750712
 C         -0.1232142367       -0.1925637419       -2.5579632871
 C          1.4987918423        4.6684659546        0.2245674195
 C          0.4556800943        4.9219389868        1.3556697043
 C          2.9922471642       -4.7835843851        0.9814241703
 C          2.8069270520       -5.0803352088       -0.5389519628
 C         -4.8372938918       -3.0819357254        0.9357180189
 C         -4.5795144616       -3.6864799306       -0.4761384806
 Br         6.7176848397        0.7998901508        2.2255760365
 Br        -5.6042741912        3.3134148895       -1.2407945323
 Br         0.1725444532        1.5790061766       -3.2322420456
 N          2.3090489360        3.5648204051        0.6389573589
 N         -0.7342874283        4.2321845698        0.9773129839
 N          3.4672114724       -3.4417513948        1.0962299302
 N         -4.7590392222       -1.6652151573        0.7928175117
 N          1.7050563562       -4.2862567890       -0.9657871740
 N         -3.2359060076       -3.3619359253       -0.8388136064
 H          3.4479898280        7.3431893082        1.2152024528
 H          3.0893448224        5.8208820138        2.0280124288
 H          1.4697950633        7.1883403873        3.0140255706
 H          1.3104643525        8.2229257033        1.5990462888
 H          2.7205163316       -7.4131604640        1.8495649281
 H          4.4367189998       -7.8282381232        1.7858223008
 H          3.2575706246       -8.5074974885       -0.3078673078
 H          4.4941088523       -7.2880260341       -0.6318153426
 H         -7.3928725796       -5.2505156176        1.7917223418
 H         -5.6740257117       -5.4223468493        2.1613016242
 H         -6.2275122436       -6.6724999924        0.1002341082
 H         -6.8912964436       -5.2072961811       -0.6294946506
 H          3.3259912584        5.5527674826       -0.4506939883
 H          1.9129586101        6.5896585128       -0.6684479277
 H         -0.6488579657        6.5590605296        2.1943744291
 H         -0.1893909181        6.7679258797        0.5081463463
 H          4.1070593973       -5.5190997378        2.6538956826
 H          4.9973916418       -5.5034527085        1.1298964342
 H          1.5017471541       -6.7538532875       -0.2987284845
 H          2.3877934843       -6.7387150526       -1.8255827699
 H         -6.3850187113       -3.0612732219        2.4173251474
 H         -6.9679320656       -3.0373871827        0.7508865574
 H         -3.9842960281       -5.6153248310        0.2283439631
 H         -4.5801176387       -5.6019026784       -1.4331758794
 H          1.3500188871       -0.2379974627        0.4394254230
 H         -1.6827365234        0.5317671166        1.9182388542
 H         -0.7206522818       -3.7002097488       -1.1372518499
 H          4.4948524774        2.5329672973        1.2599204188
 H         -3.0035178565        4.1032224623       -0.0125705926
 H          5.0967165643       -1.6757218139        1.8956091972
 H         -5.3762688034        0.5234463392       -0.2228927037
 H          1.9660806286       -0.6704696045       -2.5273699744
 H         -2.2501461426        0.0559314995       -2.5054161582
 H          1.1397344044        2.1181438932       -0.2812141736
 H         -0.4271413595        2.6067649895        2.2334830434
 H          1.5733646338       -2.5894135696        1.2103896294
 H         -2.8675852518       -1.5468404964        1.6316587915
 H          2.8756527668       -2.7757127422       -1.7801625080
 H         -3.7996134002       -1.6485371254       -1.8604569231
 H          0.9369179174        4.4377630125       -0.6962143958
 H          0.8756127227        4.5366979008        2.3016823933
 H          2.0072935288       -4.9197344702        1.4573564447
 H          3.7484926946       -4.8078510571       -1.0463372068
 H         -4.0588813280       -3.4746559174        1.6134474586
 H         -5.3127342893       -3.2292418644       -1.1616731945