22
SSJXIUAHEKJCMH-WDSKDSINSA-N
 C         -1.6668354444       -0.7333923484       -0.1461802696
 C         -1.6529317893        0.7679869646        0.1256223886
 C         -0.4108886853       -1.1555425430       -0.9048530821
 C         -0.3977587998        1.1647859622        0.8992223339
 C          0.8759429156       -0.7664915146       -0.1685957385
 C          0.8898445549        0.7477844390        0.1796974778
 N          1.0642399749       -1.6386585424        0.9837876649
 N          1.1122548397        1.6154097701       -0.9698662116
 H         -2.5487709996       -0.9977446183       -0.7337957574
 H         -1.7279462828       -1.2775689674        0.7986111836
 H         -2.5361085754        1.0506575041        0.7027655735
 H         -1.6916929487        1.3129429502       -0.8199075457
 H         -0.4107817385       -0.6849626816       -1.8909847363
 H         -0.4069060077       -2.2370459055       -1.0496545449
 H         -0.4198346177        0.6962810297        1.8860644159
 H         -0.3729299168        2.2462403285        1.0422282336
 H          1.7290060085       -0.9649613072       -0.8354466735
 H          1.7382027570        0.9277998719        0.8576951206
 H          0.3034777397       -1.5123302736        1.6426120238
 H          1.9241596799       -1.3971169708        1.4657725433
 H          0.3566008720        1.5072485428       -1.6377560199
 H          1.9720526137        1.3541646456       -1.4418807536