22
SSJXIUAHEKJCMH-PHDIDXHHSA-N
 C          1.6275358982        0.7278788755        0.1731894575
 C          1.6143193851       -0.7614919682       -0.1495830554
 C          0.3764985849        1.0968101448        0.9624599019
 C          0.3676356722       -1.1038676926       -0.9576555070
 C         -0.8899647007        0.7568375432        0.1747991731
 C         -0.9024913893       -0.7386399183       -0.1876084817
 N         -0.9404870544        1.5457320585       -1.0504831183
 N         -0.9857512505       -1.5259495513        1.0367508877
 H          2.5162611081        0.9801875701        0.7550892643
 H          1.6461292327        1.3007159396       -0.7551567592
 H          1.6067078494       -1.3343939698        0.7789024289
 H          2.5062161425       -1.0325845006       -0.7179630544
 H          0.3790471637        2.1633823434        1.1994739063
 H          0.3536156780        0.5331123433        1.8956576331
 H          0.3518177671       -2.1699457106       -1.1965189042
 H          0.3698358591       -0.5385020908       -1.8901553968
 H         -1.7657368810        0.9526969356        0.8274013654
 H         -1.7730227205       -0.9167409198       -0.8522842761
 H         -1.7996764589        1.3569410959       -1.5566465072
 H         -0.9270994104        2.5346029280       -0.8233484387
 H         -0.9865548884       -2.5152848240        0.8099594643
 H         -1.8487957313       -1.3212952401        1.5305042034