22
SSJXIUAHEKJCMH-PHDIDXHHSA-N
 C          1.9350388957        0.6866638562        0.2819494703
 C          1.9193478139       -0.7313967665       -0.2792121738
 C          0.6851380494        1.4427410942       -0.1561633366
 C          0.6511564610       -1.4585412420        0.1554022856
 C         -0.5951209063        0.7165703316        0.2923068969
 C         -0.6116144072       -0.7024625027       -0.2933479436
 N         -1.8176588433        1.4193451720       -0.0647990265
 N         -1.8502294303       -1.3765154961        0.0638773512
 H          1.9682036592        0.6456284546        1.3733652951
 H          2.8272591545        1.2150355451       -0.0611121629
 H          2.7980721009       -1.2803762586        0.0663447143
 H          1.9566328526       -0.6910828189       -1.3705134373
 H          0.6761007236        1.5366918356       -1.2459875802
 H          0.6919814072        2.4508645865        0.2678555265
 H          0.6381859367       -1.5545293586        1.2450398994
 H          0.6353079772       -2.4657518821       -0.2706318183
 H         -0.5912908170        0.6404811669        1.3887236806
 H         -0.6060414688       -0.6264983844       -1.3897553568
 H         -1.7573029365        2.3894958708        0.2276537731
 H         -1.9480806660        1.4043771400       -1.0705201071
 H         -1.9801206357       -1.3584301665        1.0697673519
 H         -1.8126909970       -2.3478632606       -0.2285659649