22
SSJXIUAHEKJCMH-PHDIDXHHSA-N
 C          1.9341177742        0.6700870107        0.2748416170
 C          1.9001046150       -0.7332865925       -0.3215920278
 C          0.6836823497        1.4468192978       -0.1226279907
 C          0.6386958262       -1.4643146152        0.1231426796
 C         -0.5885124549        0.7217837802        0.3176406711
 C         -0.6204193722       -0.6985744779       -0.2882998339
 N         -1.7472713380        1.4781894432       -0.1514315216
 N         -1.7880141407       -1.4860588397        0.0839737094
 H          1.9878022598        0.6005458100        1.3644163829
 H          2.8215602679        1.2040116210       -0.0706545691
 H          2.7822492480       -1.2944275255       -0.0069093654
 H          1.9138046607       -0.6650587354       -1.4112282414
 H          0.6473907232        1.5690062175       -1.2065951053
 H          0.7045227081        2.4435447420        0.3264685931
 H          0.6434041156       -1.5789468680        1.2103606564
 H          0.5960678041       -2.4613664573       -0.3165614421
 H         -0.5767795447        0.6224547932        1.4223968437
 H         -0.6461046974       -0.5970052038       -1.3785830377
 H         -2.6043042791        1.0980936982        0.2382299022
 H         -1.6803166653        2.4430228980        0.1558893727
 H         -2.6313806768       -1.0603273224       -0.2839939403
 H         -1.8721594978       -1.5291397115        1.0955533126