22
SSJXIUAHEKJCMH-PHDIDXHHSA-N
 C          1.9253261079        0.6841088255        0.2888605223
 C          1.9090628350       -0.7289143655       -0.2868853684
 C          0.6788171608        1.4476248613       -0.1449476949
 C          0.6447411454       -1.4630631383        0.1460249933
 C         -0.5960685300        0.7247193240        0.2917242020
 C         -0.6123192003       -0.7106675935       -0.2924171074
 N         -1.7477726912        1.5359102461       -0.0854996438
 N         -1.7831573687       -1.4946773973        0.0834193104
 H          1.9583779715        0.6324219667        1.3795299861
 H          2.8171066670        1.2156072459       -0.0490456059
 H          2.7879351452       -1.2811198680        0.0516039194
 H          1.9440109267       -0.6779873842       -1.3775321551
 H          0.6706113892        1.5474548325       -1.2333839510
 H          0.6745770467        2.4516460703        0.2822903162
 H          0.6330572542       -1.5619935437        1.2345204349
 H          0.6176807438       -2.4669853895       -0.2806272787
 H         -0.6120601146        0.6529995259        1.3880399235
 H         -0.6251709777       -0.6387036095       -1.3887431776
 H         -1.7883267472        1.6298188060       -1.0960713879
 H         -2.6115991847        1.0971627834        0.2179466341
 H         -2.6361578498       -1.0360808811       -0.2217544938
 H         -1.8273448899       -1.5867854446        1.0940186708