  64

 C          6.6867090887        0.9700502617        0.2463691884
 C          6.7322181651       -0.4561965721        0.7890207500
 C         -5.9107772760        2.4797772397        1.5721837649
 C         -6.5109688594        1.0888016158        1.7547761092
 C          5.6374712872        1.1004491089       -0.8540452476
 C          5.3585762298       -0.8950081435        1.2876334294
 C         -4.9313514135        2.4926972920        0.3925745709
 C         -5.4228050400        0.0892010921        2.1626666826
 C         -0.3210645500        1.1199452795       -1.3932335317
 C          0.2181174019       -1.5240054689        0.9790752275
 C          1.1310017787        0.7565379678       -3.2785985245
 C          0.5630048976       -3.7691369184        0.1847560996
 C         -1.2693946211        0.6296140533       -3.5490010767
 C         -1.6495649142       -3.0355951025        0.8275137990
 C          2.1025702264        1.1110662018       -1.0186582587
 C          2.4607709541       -2.1868681862        0.1769917976
 C         -2.7697113426        0.8619394466       -1.5963036633
 C         -2.0285684667       -0.6751269328        1.4957705161
 C          0.9625408691        1.0232437994       -1.9183582376
 C          1.0720762307       -2.5056071165        0.4817426907
 C         -1.4402975055        0.8982119386       -2.1917439769
 C         -1.1428024382       -1.7686922551        1.1243058238
 C          0.0125372866        0.5852456058       -4.0691477325
 C         -0.7839256765       -4.0153760459        0.3854511748
 C          4.2687797437        0.6811609442       -0.3264188276
 C          4.3313162646       -0.7891564284        0.1582002952
 C         -4.2702854784        1.1212016026        0.1785437089
 C         -4.0605369274        0.4449946032        1.5566169384
 Br         0.2382427155        0.2361010905       -5.9390533506
 Br        -1.4717344253       -5.7606081017       -0.0019874945
 N          3.2665758237        0.7475833875       -1.3488525764
 N          3.0209829833       -1.1427883223        0.6120112173
 N         -2.9860739206        1.2880770717       -0.4281201990
 N         -3.2816411101       -0.7394622420        1.3482072579
 H          6.4441981774        1.6589890366        1.0588121498
 H          7.6660290151        1.2471396981       -0.1476354186
 H          7.0614650974       -1.1345448298       -0.0014329100
 H          7.4518679111       -0.5189764818        1.6072941868
 H         -6.7010260939        3.2105724952        1.3941129821
 H         -5.3975749701        2.7656928918        2.4915020983
 H         -7.2887425481        1.1125628016        2.5191313634
 H         -6.9786075887        0.7779386384        0.8190668852
 H          5.8952588466        0.4675585710       -1.7048104299
 H          5.5825125103        2.1323215918       -1.2065300457
 H          5.3939207316       -1.9288991103        1.6387216498
 H          5.0346034295       -0.2666988877        2.1190824019
 H         -5.4487945750        2.7668341643       -0.5288502853
 H         -4.1431317165        3.2284112260        0.5622408638
 H         -5.6881567548       -0.9158309958        1.8316315010
 H         -5.3206868602        0.0657495246        3.2489667414
 H         -0.4780176244        1.3309614633       -0.3480625041
 H          0.6351679299       -0.5568963019        1.2078415840
 H          2.1285889539        0.6823227781       -3.6801867252
 H          1.2103576616       -4.5450131996       -0.1953816022
 H         -2.1241905176        0.4598548094       -4.1862099319
 H         -2.7055434627       -3.2194615706        0.9418973923
 H          1.8702212668        1.4552970755       -0.0012372387
 H          2.9728871404       -2.8877964152       -0.4989196518
 H         -3.5585621027        0.4035444116       -2.2104489703
 H         -1.5301678073        0.2353924956        1.8555376784
 H          3.9892738271        1.2982285813        0.5450916653
 H          4.6489956293       -1.4255948933       -0.6864462599
 H         -4.9175854616        0.4694428862       -0.4310362456
 H         -3.5165450259        1.1686267789        2.1853677313
          64
        -95.15058650
 C          6.4499034159       -0.7791526138        3.1169950485
 C          6.2949645454       -2.2000690552        2.5804912241
 C         -5.9046950998        2.0611189239        3.2945598527
 C         -6.6352439154        1.0450163586        2.4213474233
 C          5.7222566274        0.2217842952        2.2239001704
 C          4.8221164081       -2.5702922286        2.4316791267
 C         -4.6921888066        2.6355105680        2.5522531302
 C         -5.7434847700       -0.1752087271        2.1629694585
 C          0.0980556236        1.7815020394        0.9217464059
 C         -0.0969629511       -1.7623348548        0.9762081661
 C          1.9298504851        2.3211882430       -0.5440460646
 C          0.3127278870       -2.9050500369       -1.1012798941
 C         -0.3386677828        2.8744403723       -1.1760651226
 C         -1.9457861029       -2.3291986672       -0.4580424190
 C          2.3509563767        1.0456881419        1.5472623034
 C          2.2350516157       -2.1888851382        0.2764286330
 C         -2.2424324522        2.2003623905        0.2527215038
 C         -2.3473367910       -1.0053924125        1.6030030220
 C          1.4597790727        1.7548866950        0.6425212094
 C          0.7991246646       -2.3167978169        0.0655165333
 C         -0.8101909626        2.3133120115        0.0098740090
 C         -1.4613554980       -1.7362690720        0.7096750393
 C          1.0239651139        2.8859065057       -1.4191903427
 C         -1.0522866062       -2.9196082741       -1.3285957775
 C          4.2477448248       -0.1525331935        2.1119784035
 C          4.1211948125       -1.5739376148        1.5063609073
 C         -4.0987139670        1.6280955216        1.5547670026
 C         -4.2577065586        0.1985274762        2.1325059116
 Br         1.6655619716        3.6777118066       -3.0410577004
 Br        -1.7144858300       -3.7489339448       -2.9232744886
 N          3.5375900707        0.7375709047        1.2422552109
 N          2.7236505513       -1.8586392118        1.3924200486
 N         -2.7007077338        1.8736555344        1.3824941159
 N         -3.5298085701       -0.6961171986        1.2828968863
 H          6.0374009378       -0.7263994670        4.1272281801
 H          7.5080732390       -0.5178641613        3.1722945513
 H          6.7849271206       -2.2752866497        1.6070059173
 H          6.7799241293       -2.9068542209        3.2562990596
 H         -6.5782063210        2.8737633842        3.5704739563
 H         -5.5853618899        1.5702931327        4.2154586145
 H         -7.5572431256        0.7254794787        2.9089424519
 H         -6.9093865424        1.5199282146        1.4777601102
 H          6.1601701072        0.2314704634        1.2245439738
 H          5.8034006070        1.2290297426        2.6371251775
 H          4.7228715122       -3.5739329986        2.0121445561
 H          4.3251313027       -2.5595743622        3.4031336387
 H         -4.9744107818        3.5339177014        2.0003168775
 H         -3.9105652859        2.9126537080        3.2616510950
 H         -5.9968652058       -0.6345511241        1.2066241475
 H         -5.8932908013       -0.9245102562        2.9421799666
 H         -0.2890982537        1.3567963291        1.8335716046
 H          0.3011857497       -1.3176968004        1.8737043700
 H          2.9865946499        2.2974155782       -0.7558336520
 H          0.9912851657       -3.3433441350       -1.8174674275
 H         -1.0259753025        3.2944418017       -1.8948723172
 H         -3.0045304567       -2.3050034524       -0.6592428263
 H          1.8966530012        0.7285742034        2.4966143817
 H          2.8626282787       -2.3458923911       -0.6136292486
 H         -2.8925967146        2.3734873071       -0.6173894580
 H         -1.8973835616       -0.6810092215        2.5515011750
 H          3.7846649600       -0.1839540746        3.1137071841
 H          4.6142541835       -1.5790542920        0.5180886502
 H         -4.6335653989        1.6709663849        0.5914032563
 H         -3.8267502528        0.2162778183        3.1468989183
          64
        -95.15752754
 C         -6.3898004243        1.3301738314        2.9841348847
 C         -6.1202821095        2.7128459347        2.3960030106
 C          6.1202473379       -2.7125695809        2.3962052517
 C          6.3897213621       -1.3298778087        2.9843084725
 C         -5.7259864537        0.2439725983        2.1428109698
 C         -4.6214492738        2.9650388779        2.2627496486
 C          4.6214240634       -2.9647997899        2.2629069133
 C          5.7259284961       -0.2437081657        2.1429355205
 C         -0.2437632394       -1.8011380486        0.9096828435
 C          0.2437321442        1.8013284940        0.9096373453
 C         -2.1574855282       -2.3403295369       -0.4476886990
 C         -0.0457676393        3.1000202994       -1.0946449010
 C          0.0457788000       -3.1001613547       -1.0943667196
 C          2.1575105017        2.3404843897       -0.4476638433
 C         -2.4251908306       -0.8669773825        1.5346448446
 C         -2.0403078345        2.4209163052        0.2014461205
 C          2.0402890989       -2.4209021392        0.2016775939
 C          2.4251864939        0.8673025832        1.5347810111
 C         -1.6096216218       -1.7050091309        0.6683979169
 C         -0.5950220642        2.4684434162        0.0203600308
 C          0.5950108493       -2.4684092525        0.0205450887
 C          1.6096108544        1.7052411782        0.6684494014
 C         -1.3226792736       -3.0428298983       -1.2932408670
 C          1.3227099638        3.0427542245       -1.2934161303
 C         -4.2254064084        0.5009870564        2.0397846479
 C         -3.9815436439        1.8843552635        1.3874773168
 C          3.9815067761       -1.8841155838        1.3876468630
 C          4.2253501843       -0.5007335882        2.0399204447
 Br        -2.0727684886       -3.9348202088       -2.8136065894
 Br         2.0728390757        3.9343593147       -2.8139825752
 N         -3.5834820802       -0.4785990829        1.2138570641
 N         -2.5650151940        2.0657899595        1.2929701861
 N          2.5649753639       -2.0655379658        1.2931345342
 N          3.5834048613        0.4787707877        1.2139207561
 H         -5.9975962387        1.2870369851        4.0028647495
 H         -7.4652984664        1.1506185145        3.0303301089
 H         -6.5866102614        2.7850320666        1.4107463528
 H         -6.5617642870        3.4806455634        3.0340176140
 H          6.5866124722       -2.7847762522        1.4109674632
 H          6.5617217826       -3.4803335863        3.0342643776
 H          5.9974715344       -1.2867102372        4.0030195012
 H          7.4652153778       -1.1503105568        3.0305471305
 H         -6.1489094801        0.2280841293        1.1370273039
 H         -5.8888703334       -0.7376268658        2.5919586894
 H         -4.4385810618        3.9420243232        1.8095564134
 H         -4.1436571638        2.9529553413        3.2438619920
 H          4.4385992485       -3.9417776082        1.8096839465
 H          4.1436022909       -2.9527638747        3.2440046540
 H          6.1488510225       -0.2278765563        1.1371520219
 H          5.8888192182        0.7379084667        2.5920417578
 H          0.2025378780       -1.3252501080        1.7675689460
 H         -0.2025869886        1.3255297240        1.7675654879
 H         -3.2171355031       -2.2622827677       -0.6296408777
 H         -0.6783718246        3.6276800749       -1.7923924833
 H          0.6783910052       -3.6280174178       -1.7919533642
 H          3.2171856223        2.2625292769       -0.6295062213
 H         -1.9388660186       -0.5375909042        2.4635337224
 H         -2.6412772967        2.6651776329       -0.6871112687
 H          2.6412765174       -2.6654211508       -0.6867987594
 H          1.9389519064        0.5381337418        2.4637962887
 H         -3.7719837343        0.5326940722        3.0457414792
 H         -4.4552842851        1.8942242876        0.3901978652
 H          4.4552300160       -1.8939554070        0.3903600179
 H          3.7719258204       -0.5323771915        3.0458806590
